Infrared Spectrum: Butanenitrile, 4-chloro-
Formula: C 4 H 6 Cl N
CAS: 628-20-6
State: gas
Origin: Sadtler Research Labs Under US-EPA Contract
1/CM	ABSORBANCE
450	0.00258136
462	0.0154882
474	0.0125939
486	0.0264394
498	0.031211
510	0.0164268
522	0.0364519
534	0.0394244
546	0.0307416
558	0.0170526
570	0.0341835
582	0.0242491
594	0.0235451
606	0.02597
618	0.0261265
630	0.0384857
642	0.0734514
654	0.204318
666	0.461672
678	0.438831
690	0.133136
702	0.0714176
714	0.078927
726	0.126174
738	0.183746
750	0.188596
762	0.256337
774	0.369838
786	0.239284
798	0.0725127
810	0.0492805
822	0.0583544
834	0.147841
846	0.268148
858	0.239441
870	0.0939458
882	0.0549908
894	0.0786141
906	0.0660984
918	0.0445871
930	0.0463862
942	0.0469338
954	0.0593713
966	0.0875315
978	0.176002
990	0.198999
1002	0.13032
1014	0.0380946
1026	0.0289425
1038	0.0348092
1050	0.0407542
1062	0.0457605
1074	0.0398937
1086	0.0237798
1098	0.0220589
1110	0.0343399
1122	0.0605446
1134	0.0772843
1146	0.0580415
1158	0.0369213
1170	0.04138
1182	0.0348875
1194	0.0477943
1206	0.0581197
1218	0.0644558
1230	0.0608575
1242	0.0825253
1254	0.112719
1266	0.189534
1278	0.366944
1290	0.571028
1302	0.526832
1314	0.341522
1326	0.238893
1338	0.210263
1350	0.187109
1362	0.131336
1374	0.0738425
1386	0.0528787
1398	0.0439613
1410	0.0623437
1422	0.189378
1434	0.477943
1446	0.642524
1458	0.480289
1470	0.210811
1482	0.0767368
1494	0.0334012
1506	0.0323843
1518	0.0260483
1530	0.01893
1542	0.026674
1554	0.0193993
1566	0.0120463
1578	0.0132979
1590	0.00907387
1602	0.00915209
1614	0.00657073
1626	0.012281
1638	0.0118117
1650	0.0104037
1662	0.00649251
1674	0.0112641
1686	0.0161139
1698	0.0145495
1710	0.00750941
1722	0.00969965
1734	0.0171308
1746	0.0140801
1758	0.01893
1770	0.0195558
1782	0.0114206
1794	0.0151753
1806	0.00602317
1818	0.00492805
1830	0.00891742
1842	0.00547561
1854	0.00469338
1866	0.0078223
1878	0.00563206
1890	0.00617962
1902	0.00641429
1914	0.00445871
1926	0.0037547
1938	0.00352003
1950	0.00265958
1962	0.00226847
1974	0.00312892
1986	0.00367648
1998	0.00516272
2010	0.00492805
2022	0.00547561
2034	0.00586672
2046	0.0068054
2058	0.00797875
2070	0.00672718
2082	0.00516272
2094	0.00735296
2106	0.00743118
2118	0.00649251
2130	0.00547561
2142	0.00492805
2154	0.00312892
2166	0.00336359
2178	0.00602317
2190	0.00672718
2202	0.010169
2214	0.0109512
2226	0.0125157
2238	0.0229976
2250	0.059997
2262	0.0691491
2274	0.0265176
2286	0.0156446
2298	0.0132197
2310	0.0118117
2322	0.0126721
2334	0.0119681
2346	0.0114206
2358	0.0112641
2370	0.00727474
2382	0.00547561
2394	0.00531916
2406	0.00758763
2418	0.0111859
2430	0.0146277
2442	0.0125939
2454	0.00946498
2466	0.00586672
2478	0.00547561
2490	0.00790052
2502	0.0088392
2514	0.00805697
2526	0.00516272
2538	0.0030507
2550	0.00219024
2562	0.00398937
2574	0.00547561
2586	0.00500627
2598	0.00907387
2610	0.0125939
2622	0.0103254
2634	0.00876098
2646	0.00797875
2658	0.0098561
2670	0.00758763
2682	0.00758763
2694	0.00938676
2706	0.0098561
2718	0.0137672
2730	0.0148624
2742	0.0133761
2754	0.0148624
2766	0.0157228
2778	0.0150188
2790	0.0162704
2802	0.0193211
2814	0.0198686
2826	0.0222936
2838	0.0352003
2850	0.0757199
2862	0.134152
2874	0.17123
2886	0.179835
2898	0.140958
2910	0.116083
2922	0.200407
2934	0.355836
2946	0.468008
2958	0.604507
2970	0.765647
2982	0.652849
2994	0.406916
3006	0.293336
3018	0.192116
3030	0.068758
3042	0.0269087
3054	0.0150188
3066	0.0121246
3078	0.0111077
3090	0.0128286
3102	0.011577
3114	0.010169
3126	0.00876098
3138	0.0107948
3150	0.0146277
3162	0.0130632
3174	0.0107948
3186	0.0078223
3198	0.0129068
3210	0.0132979
3222	0.0112641
3234	0.00946498
3246	0.0103254
3258	0.0121246
3270	0.0105601
3282	0.00649251
3294	0.00719652
3306	0.00672718
3318	0.00563206
3330	0.00672718
3342	0.00696185
3354	0.00328537
3366	0.00641429
3378	0.00657073
3390	0.00774408
3402	0.00391115
3414	0.00195558
3426	0.00367648
3438	0.00312892
3450	0.00422404
3462	0.00297247
3474	0.00664895
3486	0.00484983
3498	0.00704007
3510	0.00743118
3522	0.0068054
3534	0.00617962
3546	0.00790052
3558	0.00571028
3570	0.0105601
3582	0.00688362
3594	0.00923031
3606	0.00750941
3618	0.0119681
3630	0.0166615
3642	0.0116552
3654	0.012985
3666	0.0125939
3678	0.0180695
3690	0.0168179
3702	0.0125939
3714	0.0145495
3726	0.0153317
3738	0.0204944
3750	0.0201815
3762	0.0149406
3774	0.0142366
3786	0.0154882
3798	0.0190864
3810	0.0137672
3822	0.0204944
3834	0.0197904
3846	0.0181477
3858	0.0215113
3870	0.0211202
3882	0.0197904
3894	0.020338
3906	0.0219024
3918	0.0219024
3930	0.0188517
3942	0.0216678
3954	0
3966	0.00187735
