Infrared Spectrum: n-BUTANOL
Formula: C4 H10 O
CAS: 71-36-3
State: SOLUTION (0.5% IN CCl4 FOR 3800-1330, 0.5% IN CS2 FOR 1330-400 CM^-^1)
Class: COBLENTZ
Instrument: DOW KBr FOREPRISM-GRATING
Instrument parameters: BLAZED AT 3.5, 12.0, 20.0 MICRON, CHANGED AT 5.0, 7.5, 14.9 MICRON
Sampling: TRANSMISSION
Path length: 0.055, 0.054 CM
Resolution: 4
Origin: DOW CHEMICAL COMPANY
1/CM	TRANSMITTANCE
392.857	0.886
401.568	0.887
410.279	0.892
418.989	0.896
427.7	0.896
436.411	0.894
445.122	0.889
453.833	0.89
462.544	0.89
471.254	0.889
479.965	0.885
488.676	0.883
497.387	0.883
506.098	0.864
514.808	0.872
523.519	0.882
532.23	0.887
540.941	0.89
549.652	0.894
558.363	0.898
567.073	0.904
575.784	0.905
584.495	0.909
593.206	0.911
601.917	0.912
610.627	0.918
619.338	0.922
628.049	0.923
636.76	0.923
645.471	0.923
654.182	0.927
662.892	0.937
671.603	0.953
680.314	1.002
689.025	1.008
697.736	1.006
706.446	1.008
715.157	1.008
723.868	1.004
732.579	0.984
741.29	0.968
750.001	0.989
758.711	1.002
767.422	1.009
776.133	1.002
784.844	1.002
793.555	0.994
802.265	0.984
810.976	0.984
819.687	0.982
828.398	0.974
837.109	0.946
845.819	0.889
854.53	0.956
863.241	0.965
871.952	0.964
880.663	0.964
889.374	0.963
898.084	0.943
906.795	0.956
915.506	0.954
924.217	0.937
932.928	0.896
941.638	0.834
950.349	0.814
959.06	0.863
967.771	0.889
976.482	0.871
985.193	0.826
993.903	0.841
1002.61	0.756
1011.33	0.77
1020.04	0.711
1028.75	0.55
1037.46	0.603
1046.17	0.6661
1054.88	0.71
1063.59	0.568
1072.3	0.596
1081.01	0.75
1089.72	0.815
1098.43	0.836
1107.14	0.86
1115.85	0.879
1124.57	0.894
1133.28	0.904
1141.99	0.911
1150.7	0.911
1159.41	0.904
1168.12	0.894
1176.83	0.883
1185.54	0.871
1194.25	0.856
1202.96	0.846
1211.67	0.853
1220.38	0.857
1229.1	0.863
1237.81	0.863
1246.52	0.862
1255.23	0.857
1263.94	0.845
1272.65	0.842
1281.36	0.846
1290.07	0.852
1298.78	0.857
1307.49	0.863
1316.2	0.859
1324.91	0.853
1333.63	0.84
1342.34	0.845
1351.05	0.853
1359.76	0.846
1368.47	0.833
1377.18	0.777
1385.89	0.718
1394.6	0.777
1403.31	0.825
1412.02	0.848
1420.73	0.857
1429.44	0.852
1438.16	0.821
1446.87	0.834
1455.58	0.755
1464.29	0.709
1473	0.767
1481.71	0.825
1490.42	0.892
1499.13	0.907
1507.84	0.913
1516.55	0.916
1525.26	0.919
1533.97	0.919
1542.68	0.919
1551.4	0.919
1560.11	0.919
1568.82	0.919
1577.53	0.92
1586.24	0.92
1594.95	0.924
1603.66	0.926
1612.37	0.926
1621.08	0.927
1629.79	0.931
1638.5	0.931
1647.21	0.933
1655.93	0.935
1664.64	0.934
1673.35	0.934
1682.06	0.935
1690.77	0.935
1699.48	0.938
1708.19	0.934
1716.9	0.935
1725.61	0.938
1734.32	0.941
1743.03	0.943
1751.74	0.946
1760.46	0.948
1769.17	0.95
1777.88	0.953
1786.59	0.953
1795.3	0.956
1804.01	0.957
1812.72	0.961
1821.43	0.959
1830.14	0.961
1838.85	0.957
1847.56	0.957
1856.27	0.957
1864.99	0.957
1873.7	0.957
1882.41	0.959
1891.12	0.957
1899.83	0.957
1908.54	0.957
1917.25	0.956
1925.96	0.959
1934.67	0.957
1943.38	0.959
1952.09	0.959
1960.8	0.959
1969.51	0.957
1978.23	0.963
1986.94	0.965
1995.65	0.968
2004.36	0.964
2013.07	0.963
2021.78	0.963
2030.49	0.964
2039.2	0.964
2047.91	0.964
2056.62	0.967
2065.33	0.968
2074.04	0.968
2082.76	0.968
2091.47	0.9685
2100.18	0.969
2108.89	0.969
2117.6	0.971
2126.31	0.971
2135.02	0.971
2143.73	0.971
2152.44	0.971
2161.15	0.971
2169.86	0.971
2178.57	0.972
2187.29	0.974
2196	0.974
2204.71	0.975
2213.42	0.9745
2222.13	0.974
2230.84	0.975
2239.55	0.976
2248.26	0.976
2256.97	0.978
2265.68	0.9785
2274.39	0.9768
2283.1	0.9771
2291.82	0.979
2300.53	0.9835
2309.24	0.99
2317.95	0.9936
2326.66	0.994
2335.37	0.997
2344.08	0.995
2352.79	0.995
2361.5	0.995
2370.21	0.997
2378.92	0.9901
2387.63	0.984
2396.34	0.9834
2405.06	0.984
2413.77	0.986
2422.48	0.987
2431.19	0.9896
2439.9	0.99
2448.61	0.991
2457.32	0.991
2466.03	0.993
2474.74	0.994
2483.45	0.995
2492.16	0.995
2500.87	0.994
2509.59	0.9946
2518.3	0.994
2527.01	0.995
2535.72	0.994
2544.43	0.994
2553.14	0.993
2561.85	0.9918
2570.56	0.9904
2579.27	0.99
2587.98	0.991
2596.69	0.991
2605.4	0.991
2614.12	0.99
2622.83	0.989
2631.54	0.987
2640.25	0.9864
2648.96	0.984
2657.67	0.984
2666.38	0.982
2675.09	0.98
2683.8	0.98
2692.51	0.98
2701.22	0.9784
2709.93	0.974
2718.65	0.9674
2727.36	0.964
2736.07	0.9618
2744.78	0.9594
2753.49	0.957
2762.2	0.956
2770.91	0.9524
2779.62	0.945
2788.33	0.942
2797.04	0.9377
2805.75	0.9274
2814.46	0.9154
2823.17	0.8908
2831.89	0.8607
2840.6	0.7826
2849.31	0.7146
2858.02	0.5909
2866.73	0.4815
2875.44	0.4232
2884.15	0.5898
2892.86	0.6004
2901.57	0.5545
2910.28	0.5018
2918.99	0.4447
2927.7	0.3379
2936.42	0.3253
2945.13	0.4213
2953.84	0.3302
2962.55	0.257
2971.26	0.429
2979.97	0.6908
2988.68	0.8359
2997.39	0.9017
3006.1	0.9343
3014.81	0.952
3023.52	0.966
3032.23	0.972
3040.95	0.976
3049.66	0.9787
3058.37	0.982
3067.08	0.9854
3075.79	0.9877
3084.5	0.989
3093.21	0.9907
3101.92	0.991
3110.63	0.991
3119.34	0.99
3128.05	0.991
3136.76	0.99
3145.48	0.991
3154.19	0.99
3162.9	0.99
3171.61	0.989
3180.32	0.9863
3189.03	0.9846
3197.74	0.984
3206.45	0.983
3215.16	0.982
3223.87	0.98
3232.58	0.98
3241.29	0.979
3250.01	0.978
3258.72	0.975
3267.43	0.974
3276.14	0.9713
3284.85	0.971
3293.56	0.969
3302.27	0.968
3310.98	0.9633
3319.69	0.959
3328.4	0.956
3337.11	0.953
3345.82	0.953
3354.53	0.952
3363.25	0.95
3371.96	0.952
3380.67	0.952
3389.38	0.9537
3398.09	0.954
3406.8	0.9523
3415.51	0.952
3424.22	0.952
3432.93	0.9493
3441.64	0.9453
3450.35	0.943
3459.06	0.941
3467.78	0.938
3476.49	0.933
3485.2	0.9285
3493.91	0.926
3502.62	0.924
3511.33	0.9277
3520.04	0.9325
3528.75	0.9377
3537.46	0.9458
3546.17	0.9555
3554.88	0.9638
3563.59	0.971
3572.31	0.9735
3581.02	0.974
3589.73	0.972
3598.44	0.9655
3607.15	0.9507
3615.86	0.8911
3624.57	0.7797
3633.28	0.663
3641.99	0.6413
3650.7	0.8014
3659.41	0.9301
3668.12	0.9678
3676.84	0.9776
3685.55	0.9798
3694.26	0.982
3702.97	0.9898
3711.68	0.9966
3720.39	1.0008
3729.1	0.9972
3737.81	0.994
3746.52	0.9914
3755.23	0.9926
3763.94	0.994
3772.65	0.995
3781.36	0.995
3790.08	0.9948
