Infrared Spectrum: n-BUTYL ALCOHOL
Formula: C4 H10 O
CAS: 71-36-3
State: LIQUID (NEAT)
Class: COBLENTZ III
Instrument: PERKIN-ELMER 521 (GRATING)
Instrument parameters: FILTERS AT 3150, 2500, 2000, 1150, 700, 410 AND GRATING CHANGES: 2000, 630 CM^-^1
Sampling: TRANSMISSION
Path length: CAPILLARY
Resolution: 4
Origin: SOUTHERN RESEARCH INSTITUTE
1/CM	TRANSMITTANCE
250	0.663
259.646	0.6929
269.293	0.7167
278.939	0.7425
288.585	0.7717
298.232	0.786
307.878	0.791
317.524	0.789
327.171	0.7853
336.817	0.761
346.463	0.763
356.109	0.7832
365.756	0.788
375.402	0.7812
385.048	0.7531
394.695	0.7568
404.341	0.7617
413.987	0.7534
423.634	0.7359
433.28	0.7015
442.926	0.665
452.573	0.6881
462.219	0.6889
471.865	0.6668
481.512	0.651
491.158	0.644
500.804	0.6053
510.45	0.6087
520.097	0.6211
529.743	0.6133
539.389	0.5979
549.036	0.5795
558.682	0.5659
568.328	0.5467
577.975	0.5324
587.621	0.5183
597.267	0.508
606.914	0.4975
616.56	0.498
626.206	0.495
635.853	0.49
645.499	0.489
655.145	0.4907
664.791	0.4905
674.438	0.496
684.084	0.5032
693.73	0.5113
703.377	0.5201
713.023	0.5269
722.669	0.5109
732.316	0.4829
741.962	0.5385
751.608	0.5936
761.255	0.6219
770.901	0.6364
780.547	0.6483
790.194	0.6535
799.84	0.6592
809.486	0.6787
819.132	0.668
828.779	0.6112
838.425	0.439
848.071	0.685
857.718	0.7415
867.364	0.7364
877.01	0.7533
886.657	0.6871
896.303	0.7416
905.949	0.768
915.596	0.7516
925.242	0.667
934.888	0.519
944.535	0.338
954.181	0.46
963.827	0.595
973.473	0.5574
983.12	0.3884
992.766	0.52
1002.41	0.3316
1012.06	0.3816
1021.71	0.2351
1031.35	0.2307
1041	0.226
1050.64	0.2512
1060.29	0.2212
1069.94	0.1986
1079.58	0.3778
1089.23	0.4836
1098.88	0.4296
1108.52	0.3893
1118.17	0.5732
1127.81	0.6346
1137.46	0.7021
1147.11	0.736
1156.75	0.741
1166.4	0.7328
1176.05	0.7167
1185.69	0.6627
1195.34	0.6026
1204.98	0.569
1214.63	0.6114
1224.28	0.6561
1233.92	0.6302
1243.57	0.6208
1253.22	0.6507
1262.86	0.6612
1272.51	0.6309
1282.16	0.5619
1291.8	0.5607
1301.45	0.5422
1311.09	0.5178
1320.74	0.4814
1330.39	0.4665
1340.03	0.477
1349.68	0.4706
1359.33	0.436
1368.97	0.3573
1378.62	0.3815
1388.26	0.446
1397.91	0.4326
1407.56	0.4077
1417.2	0.3887
1426.85	0.365
1436.5	0.3779
1446.14	0.3242
1455.79	0.2791
1465.44	0.2986
1475.08	0.41
1484.73	0.5846
1494.37	0.6735
1504.02	0.7169
1513.67	0.7465
1523.31	0.773
1532.96	0.7866
1542.61	0.7992
1552.25	0.807
1561.9	0.813
1571.54	0.818
1581.19	0.822
1590.84	0.822
1600.48	0.8203
1610.13	0.817
1619.78	0.8085
1629.42	0.806
1639.07	0.806
1648.72	0.8073
1658.36	0.8123
1668.01	0.8262
1677.65	0.84
1687.3	0.849
1696.95	0.8597
1706.59	0.865
1716.24	0.8729
1725.89	0.875
1735.53	0.879
1745.18	0.8825
1754.82	0.884
1764.47	0.885
1774.12	0.8834
1783.76	0.883
1793.41	0.8861
1803.06	0.889
1812.7	0.892
1822.35	0.892
1832	0.892
1841.64	0.89
1851.29	0.89
1860.93	0.892
1870.58	0.8932
1880.23	0.894
1889.87	0.893
1899.52	0.887
1909.17	0.889
1918.81	0.891
1928.46	0.89
1938.1	0.887
1947.75	0.891
1957.4	0.889
1967.04	0.887
1976.69	0.8908
1986.34	0.8856
1995.98	0.8833
2005.63	0.8703
2015.28	0.863
2024.92	0.8643
2034.57	0.8687
2044.21	0.8747
2053.86	0.875
2063.51	0.875
2073.15	0.875
2082.8	0.8763
2092.45	0.8823
2102.09	0.889
2111.74	0.886
2121.38	0.8843
2131.03	0.883
2140.68	0.883
2150.32	0.8803
2159.97	0.8773
2169.62	0.875
2179.26	0.875
2188.91	0.878
2198.56	0.879
2208.2	0.88
2217.85	0.88
2227.49	0.879
2237.14	0.879
2246.79	0.878
2256.43	0.878
2266.08	0.878
2275.73	0.8757
2285.37	0.874
2295.02	0.8683
2304.66	0.862
2314.31	0.8627
2323.96	0.863
2333.6	0.861
2343.25	0.861
2352.9	0.86
2362.54	0.857
2372.19	0.8533
2381.84	0.85
2391.48	0.84
2401.13	0.836
2410.77	0.836
2420.42	0.835
2430.07	0.834
2439.71	0.831
2449.36	0.83
2459.01	0.824
2468.65	0.823
2478.3	0.8153
2487.94	0.8103
2497.59	0.8003
2507.24	0.7927
2516.88	0.7843
2526.53	0.7783
2536.18	0.768
2545.82	0.7603
2555.47	0.756
2565.12	0.7557
2574.76	0.755
2584.41	0.756
2594.05	0.755
2603.7	0.7477
2613.35	0.7337
2622.99	0.7277
2632.64	0.7233
2642.29	0.7103
2651.93	0.6943
2661.58	0.687
2671.22	0.6773
2680.87	0.667
2690.52	0.662
2700.16	0.65
2709.81	0.6253
2719.46	0.601
2729.1	0.5817
2738.75	0.587
2748.4	0.584
2758.04	0.5777
2767.69	0.5617
2777.33	0.5397
2786.98	0.5097
2796.63	0.4723
2806.27	0.435
2815.92	0.3887
2825.57	0.3307
2835.21	0.272
2844.86	0.2407
2854.5	0.1927
2864.15	0.1683
2873.8	0.173
2883.44	0.1937
2893.09	0.1893
2902.74	0.181
2912.38	0.169
2922.03	0.157
2931.67	0.1567
2941.32	0.163
2950.97	0.155
2960.61	0.1633
2970.26	0.221
2979.91	0.3377
2989.55	0.4347
2999.2	0.4923
3008.85	0.512
3018.49	0.5257
3028.14	0.527
3037.78	0.521
3047.43	0.5133
3057.08	0.5017
3066.72	0.4887
3076.37	0.4687
3086.02	0.4483
3095.66	0.4324
3105.31	0.4077
3114.95	0.3873
3124.6	0.3663
3134.25	0.35
3143.89	0.33
3153.54	0.3113
3163.19	0.2883
3172.83	0.271
3182.48	0.2503
3192.13	0.244
3201.77	0.227
3211.42	0.2183
3221.06	0.21
3230.71	0.202
3240.36	0.195
3250	0.189
3259.65	0.185
3269.3	0.1807
3278.94	0.1763
3288.59	0.175
3298.23	0.173
3307.88	0.171
3317.53	0.17
3327.17	0.17
3336.82	0.17
3346.47	0.17
3356.11	0.171
3365.76	0.171
3375.41	0.174
3385.05	0.177
3394.7	0.183
3404.34	0.1897
3413.99	0.193
3423.64	0.199
3433.28	0.2063
3442.93	0.2177
3452.58	0.2297
3462.22	0.2403
3471.87	0.251
3481.51	0.27
3491.16	0.29
3500.81	0.3163
3510.45	0.343
3520.1	0.3737
3529.75	0.4053
3539.39	0.4493
3549.04	0.4903
3558.69	0.5363
3568.33	0.5793
3577.98	0.6217
3587.62	0.649
3597.27	0.6887
3606.92	0.7167
3616.56	0.7403
3626.21	0.7577
3635.86	0.7687
3645.5	0.7867
3655.15	0.803
3664.79	0.8227
3674.44	0.824
3684.09	0.824
3693.73	0.8273
3703.38	0.859
3713.03	0.8703
3722.67	0.873
3732.32	0.875
3741.97	0.875
3751.61	0.875
3761.26	0.8763
3770.9	0.879
3780.55	0.879
3790.2	0.8807
3799.84	0.881
3809.49	0.881
