Infrared Spectrum: n-BUTANOL
Formula: C4 H10 O
CAS: 71-36-3
State: SOLUTION (10% IN CCl4 FOR 3800-1300, 10% IN CS2 FOR 1300-650, 10% IN CCl4 FOR 650-240 CM^-^1) VERSUS SOLVENT
Class: COBLENTZ III
Instrument: PERKIN-ELMER 521 (GRATING)
Instrument parameters: FILTERS AT 3150, 2500, 2000, 1150, 700, 410; GRATING CHANGES AT 2000, 630 CM^-^1
Sampling: TRANSMISSION
Path length: 0.012, 0.012, AND 0.010 CM (CsBr CELL)
Resolution: 4
Origin: DOW CORNING CORP.
1/CM	TRANSMITTANCE
235.487	0.651
245.345	0.652
255.202	0.657
265.06	0.668
274.917	0.68
284.775	0.692
294.633	0.712
304.49	0.743
314.348	0.746
324.206	0.765
334.063	0.766
343.921	0.761
353.778	0.759
363.636	0.763
373.494	0.782
383.351	0.791
393.209	0.771
403.066	0.762
412.924	0.766
422.782	0.761
432.639	0.743
442.497	0.707
452.355	0.677
462.212	0.691
472.07	0.692
481.927	0.675
491.785	0.665
501.643	0.652
511.5	0.616
521.358	0.637
531.215	0.648
541.073	0.641
550.931	0.632
560.788	0.617
570.646	0.605
580.504	0.594
590.361	0.585
600.219	0.57
610.076	0.562
619.934	0.55
629.792	0.539
639.649	0.535
649.507	0.528
659.364	0.53
669.222	0.539
679.08	0.551
688.937	0.557
698.795	0.573
708.652	0.586
718.51	0.597
728.368	0.593
738.225	0.512
748.083	0.581
757.941	0.64
767.798	0.673
777.656	0.695
787.513	0.706
797.371	0.719
807.229	0.708
817.086	0.732
826.944	0.716
836.801	0.691
846.659	0.46
856.517	0.664
866.374	0.757
876.232	0.754
886.09	0.769
895.947	0.726
905.805	0.738
915.662	0.783
925.52	0.761
935.378	0.652
945.235	0.452
955.093	0.37
964.95	0.508
974.808	0.621
984.666	0.471
994.523	0.448
1004.38	0.354
1014.24	0.353
1024.1	0.183
1033.95	0.126
1043.81	0.102
1053.67	0.19
1063.53	0.079
1073.38	0.08
1083.24	0.289
1093.1	0.46
1102.96	0.409
1112.81	0.37
1122.67	0.563
1132.53	0.642
1142.39	0.711
1152.25	0.757
1162.1	0.762
1171.96	0.751
1181.82	0.726
1191.68	0.672
1201.53	0.597
1211.39	0.575
1221.25	0.629
1231.11	0.648
1240.96	0.618
1250.82	0.617
1260.68	0.637
1270.54	0.63
1280.39	0.598
1290.25	0.578
1300.11	0.565
1309.97	0.551
1319.82	0.538
1329.68	0.515
1339.54	0.514
1349.4	0.523
1359.26	0.503
1369.11	0.449
1378.97	0.296
1388.83	0.418
1398.69	0.446
1408.54	0.449
1418.4	0.457
1428.26	0.417
1438.12	0.448
1447.97	0.346
1457.83	0.233
1467.69	0.31
1477.55	0.472
1487.4	0.663
1497.26	0.74
1507.12	0.77
1516.98	0.806
1526.83	0.817
1536.69	0.82
1546.55	0.829
1556.41	0.833
1566.26	0.836
1576.12	0.844
1585.98	0.852
1595.84	0.859
1605.7	0.863
1615.55	0.863
1625.41	0.867
1635.27	0.869
1645.13	0.873
1654.98	0.876
1664.84	0.88
1674.7	0.88
1684.56	0.883
1694.41	0.887
1704.27	0.889
1714.13	0.891
1723.99	0.892
1733.84	0.896
1743.7	0.895
1753.56	0.9
1763.42	0.9
1773.27	0.902
1783.13	0.9
1792.99	0.903
1802.85	0.904
1812.71	0.904
1822.56	0.906
1832.42	0.907
1842.28	0.903
1852.14	0.904
1861.99	0.904
1871.85	0.907
1881.71	0.91
1891.57	0.907
1901.42	0.902
1911.28	0.9
1921.14	0.9
1931	0.904
1940.85	0.902
1950.71	0.903
1960.57	0.9
1970.43	0.896
1980.28	0.9
1990.14	0.903
2000	0.897
2009.86	0.891
2019.72	0.887
2029.57	0.885
2039.43	0.887
2049.29	0.891
2059.15	0.896
2069	0.893
2078.86	0.895
2088.72	0.893
2098.58	0.895
2108.43	0.896
2118.29	0.896
2128.15	0.896
2138.01	0.896
2147.86	0.893
2157.72	0.887
2167.58	0.884
2177.44	0.885
2187.29	0.888
2197.15	0.889
2207.01	0.893
2216.87	0.896
2226.73	0.895
2236.58	0.889
2246.44	0.888
2256.3	0.889
2266.16	0.889
2276.01	0.889
2285.87	0.888
2295.73	0.887
2305.59	0.887
2315.44	0.885
2325.3	0.884
2335.16	0.881
2345.02	0.883
2354.87	0.877
2364.73	0.875
2374.59	0.872
2384.45	0.868
2394.3	0.864
2404.16	0.861
2414.02	0.861
2423.88	0.859
2433.73	0.86
2443.59	0.859
2453.45	0.857
2463.31	0.852
2473.17	0.852
2483.02	0.853
2492.88	0.846
2502.74	0.838
2512.6	0.836
2522.45	0.83
2532.31	0.824
2542.17	0.817
2552.03	0.814
2561.88	0.813
2571.74	0.808
2581.6	0.808
2591.46	0.809
2601.31	0.808
2611.17	0.805
2621.03	0.786
2630.89	0.783
2640.74	0.781
2650.6	0.761
2660.46	0.753
2670.32	0.751
2680.18	0.746
2690.03	0.739
2699.89	0.731
2709.75	0.708
2719.61	0.688
2729.46	0.657
2739.32	0.657
2749.18	0.66
2759.04	0.655
2768.89	0.641
2778.75	0.625
2788.61	0.59
2798.47	0.562
2808.32	0.51
2818.18	0.468
2828.04	0.39
2837.9	0.2951
2847.75	0.19
2857.61	0.0383
2867.47	0.01
2877.33	0.052
2887.19	0.077
2897.04	0.061
2906.9	0.044
2916.76	0.025
2926.62	0.002
2936.47	0.008
2946.33	0.012
2956.19	0.001
2966.05	0.016
2975.9	0.1138
2985.76	0.355
2995.62	0.4849
3005.48	0.566
3015.33	0.61
3025.19	0.64
3035.05	0.656
3044.91	0.664
3054.76	0.667
3064.62	0.663
3074.48	0.659
3084.34	0.646
3094.2	0.633
3104.05	0.62
3113.91	0.598
3123.77	0.577
3133.63	0.567
3143.48	0.527
3153.34	0.502
3163.2	0.468
3173.06	0.438
3182.91	0.4
3192.77	0.3671
3202.63	0.331
3212.49	0.296
3222.34	0.256
3232.2	0.221
3242.06	0.19
3251.92	0.166
3261.77	0.136
3271.63	0.114
3281.49	0.095
3291.35	0.081
3301.21	0.073
3311.06	0.065
3320.92	0.063
3330.78	0.061
3340.64	0.061
3350.49	0.063
3360.35	0.067
3370.21	0.073
3380.07	0.081
3389.92	0.095
3399.78	0.103
3409.64	0.115
3419.5	0.128
3429.35	0.147
3439.21	0.167
3449.07	0.182
3458.93	0.208
3468.78	0.2379
3478.64	0.26
3488.5	0.302
3498.36	0.336
3508.21	0.3869
3518.07	0.43
3527.93	0.493
3537.79	0.539
3547.65	0.6039
3557.5	0.653
3567.36	0.7059
3577.22	0.742
3587.08	0.754
3596.93	0.74
3606.79	0.6691
3616.65	0.562
3626.51	0.535
3636.36	0.625
3646.22	0.794
3656.08	0.837
3665.94	0.852
3675.79	0.863
3685.65	0.871
3695.51	0.88
3705.37	0.881
3715.22	0.884
3725.08	0.888
3734.94	0.885
3744.8	0.889
3754.66	0.889
3764.51	0.891
3774.37	0.893
3784.23	0.892
