Infrared Spectrum: 1-Butanol
Formula: C 4 H 10 O
CAS: 71-36-3
State: gas
Origin: Sadtler Research Labs Under US-EPA Contract
1/CM	ABSORBANCE
450	0.0386462
462	0.0236946
474	0.0427009
486	0.0591731
498	0.0941448
510	0.0145715
522	0.0508103
534	0.013051
546	0.0549917
558	0.0404202
570	0.0701968
582	0.037886
594	0.0240747
606	0.0366189
618	0.0357319
630	0.0354785
642	0.0359854
654	0.0331978
666	0.0324375
678	0.0335779
690	0.033071
702	0.0335779
714	0.0325642
726	0.0399133
738	0.0430811
750	0.0461221
762	0.0410537
774	0.0390264
786	0.0353518
798	0.0414338
810	0.0405469
822	0.0606936
834	0.0682962
846	0.0804602
858	0.0817273
870	0.0632278
882	0.057906
894	0.0603135
906	0.0674092
918	0.0761521
930	0.103268
942	0.138873
954	0.157119
966	0.15864
978	0.162694
990	0.176886
1002	0.232131
1014	0.326909
1026	0.464642
1038	0.595406
1050	0.595912
1062	0.522801
1074	0.483395
1086	0.375312
1098	0.244295
1110	0.166622
1122	0.119613
1134	0.0921174
1146	0.0795733
1158	0.0810938
1170	0.0881895
1182	0.103521
1194	0.121134
1206	0.135199
1218	0.135705
1230	0.131524
1242	0.122274
1254	0.121387
1266	0.125188
1278	0.124935
1290	0.117966
1302	0.104662
1314	0.0983262
1326	0.103268
1338	0.116572
1350	0.121261
1362	0.135072
1374	0.184995
1386	0.222248
1398	0.203495
1410	0.12899
1422	0.0973125
1434	0.104662
1446	0.133044
1458	0.162694
1470	0.165735
1482	0.138873
1494	0.0932578
1506	0.0537246
1518	0.0345916
1530	0.0255952
1542	0.0236946
1554	0.0211604
1566	0.0205269
1578	0.0187529
1590	0.0182461
1602	0.0167256
1614	0.0173591
1626	0.0153318
1638	0.0157119
1650	0.0146982
1662	0.0146982
1674	0.0141914
1686	0.0146982
1698	0.0136846
1710	0.0126709
1722	0.0124175
1734	0.0129243
1746	0.0129243
1758	0.0116572
1770	0.013051
1782	0.0115305
1794	0.0117839
1806	0.00962988
1818	0.0110237
1830	0.00962988
1842	0.00975659
1854	0.00924976
1866	0.0098833
1878	0.00874292
1890	0.01001
1902	0.01001
1914	0.00962988
1926	0.0101367
1938	0.00975659
1950	0.00975659
1962	0.00899634
1974	0.0098833
1986	0.00975659
1998	0.010897
2010	0.0103901
2022	0.0122908
2034	0.0122908
2046	0.0124175
2058	0.0102634
2070	0.0101367
2082	0.00886963
2094	0.00823608
2106	0.00836279
2118	0.00734912
2130	0.00620874
2142	0.00582861
2154	0.00608203
2166	0.00506836
2178	0.00658887
2190	0.00570191
2202	0.00658887
2214	0.00544849
2226	0.00582861
2238	0.00456152
2250	0.00494165
2262	0.00468823
2274	0.00506836
2286	0.00544849
2298	0.0070957
2310	0.00861621
2322	0.00861621
2334	0.00772925
2346	0.00304102
2358	0.00620874
2370	0
2382	0.00291431
2394	0.00430811
2406	0.00646216
2418	0.00532178
2430	0.0055752
2442	0.00392798
2454	0.00291431
2466	0.00101367
2478	0.00114038
2490	0.000380127
2502	0.00114038
2514	0.00253418
2526	0.00228076
2538	0.00316772
2550	0.00342114
2562	0.00430811
2574	0.00367456
2586	0.00519507
2598	0.0055752
2610	0.00772925
2622	0.00861621
2634	0.0107703
2646	0.0112771
2658	0.0145715
2670	0.0159653
2682	0.0188796
2694	0.0206536
2706	0.0229343
2718	0.027876
2730	0.0337046
2742	0.0423208
2754	0.047009
2766	0.0515706
2778	0.0546116
2790	0.060947
2802	0.068803
2814	0.0841348
2826	0.111631
2838	0.177266
2850	0.290164
2862	0.457926
2874	0.693352
2886	0.812331
2898	0.836913
2910	0.849204
2922	1.00569
2934	1.21096
2946	1.25885
2958	1.25379
2970	1.1495
2982	0.842868
2994	0.386716
3006	0.155345
3018	0.0719707
3030	0.0456152
3042	0.0380127
3054	0.0323108
3066	0.0280027
3078	0.0226809
3090	0.0197666
3102	0.0188796
3114	0.0150784
3126	0.0131777
3138	0.0122908
3150	0.013051
3162	0.0106436
3174	0.0125442
3186	0.0101367
3198	0.0111504
3210	0.00861621
3222	0.00747583
3234	0.00392798
3246	0.00519507
3258	0.00240747
3270	0.0027876
3282	0.00240747
3294	0.00266089
3306	0.00316772
3318	0.00329443
3330	0.00240747
3342	0.0013938
3354	0.00443481
3366	0.0013938
3378	0.00494165
3390	0.00253418
3402	0.00481494
3414	0.00405469
3426	0.00684229
3438	0.00722241
3450	0.00456152
3462	0.01001
3474	0.00899634
3486	0.00886963
3498	0.00975659
3510	0.00836279
3522	0.00367456
3534	0.00532178
3546	0.00266089
3558	0.00608203
3570	0.00392798
3582	0.00734912
3594	0.00658887
3606	0.0122908
3618	0.0176126
3630	0.0302835
3642	0.0566389
3654	0.116319
3666	0.174985
3678	0.161681
3690	0.102761
3702	0.0363655
3714	0.0198933
3726	0.0124175
3738	0.0112771
3750	0.0112771
3762	0.0140647
3774	0.00798267
3786	0.01001
3798	0.0110237
3810	0.0127976
3822	0.0124175
3834	0.0184995
3846	0.0152051
3858	0.0154585
3870	0.0163455
3882	0.0168523
3894	0.0165989
3906	0.00912305
3918	0.0126709
3930	0.0110237
3942	0.0163455
3954	0.010897
3966	0.0150784
