Infrared Spectrum: 3-Methyl-2-butanol
Formula: C 5 H 12 O
CAS: 598-75-4
State: gas
Instrument: HP-GC/MS/IRD
Origin: NIST Mass Spectrometry Data Center
1/CM	ABSORBANCE
550	0.0003535
562	0.0002625
574	0.0003115
586	0.0002905
598	0.0002905
610	0.000266
622	0.0002555
634	0.000133
646	0.0001715
658	7.35e-05
670	6.65e-05
682	9.1e-05
694	0.0001015
706	0.0001225
718	9.45e-05
730	0.0001645
742	0.0001855
754	0.00021
766	0.0003115
778	0.0002835
790	0.0002135
802	0.0001995
814	0.0001995
826	0.0001785
838	0.000308
850	0.000707
862	0.001561
874	0.0023345
886	0.0024045
898	0.0020405
910	0.0027335
922	0.0040845
934	0.0044765
946	0.0033215
958	0.002142
970	0.0021385
982	0.0029295
994	0.0042665
1006	0.005845
1018	0.0069615
1030	0.0068355
1042	0.0066535
1054	0.007434
1066	0.008981
1078	0.0093205
1090	0.0082285
1102	0.006503
1114	0.0054285
1126	0.005026
1138	0.004851
1150	0.004557
1162	0.003913
1174	0.0033075
1186	0.0026285
1198	0.002296
1210	0.0026075
1222	0.003584
1234	0.0047425
1246	0.0052255
1258	0.004536
1270	0.0033985
1282	0.0027475
1294	0.0026005
1306	0.002576
1318	0.0023415
1330	0.0022085
1342	0.0026915
1354	0.003976
1366	0.006426
1378	0.0088585
1390	0.0089005
1402	0.0057225
1414	0.0030485
1426	0.0022785
1438	0.002975
1450	0.004263
1462	0.005117
1474	0.004487
1486	0.0029505
1498	0.0015715
1510	0.0008225
1522	0.000518
1534	0.000406
1546	0.000357
1558	0.0002205
1570	0.000217
1582	0.000189
1594	0.000196
1606	0.0001995
1618	0.0001715
1630	0.0002065
1642	0.0001855
1654	0.000147
1666	0.0001785
1678	0.0001505
1690	0.000119
1702	4.9e-05
1714	8.05e-05
1726	6.3e-05
1738	3.15e-05
1750	3.85e-05
1762	3.5e-05
1774	2.1e-05
1786	5.25e-05
1798	6.65e-05
1810	7.35e-05
1822	5.6e-05
1834	3.85e-05
1846	2.1e-05
1858	6.65e-05
1870	5.95e-05
1882	5.25e-05
1894	4.9e-05
1906	7e-05
1918	6.3e-05
1930	6.3e-05
1942	5.6e-05
1954	4.9e-05
1966	3.85e-05
1978	2.8e-05
1990	3.85e-05
2002	4.55e-05
2014	2.8e-05
2026	3.15e-05
2038	3.15e-05
2050	2.8e-05
2062	3.15e-05
2074	2.8e-05
2086	2.8e-05
2098	2.45e-05
2110	2.45e-05
2122	3.15e-05
2134	4.55e-05
2146	3.15e-05
2158	3.5e-06
2170	2.45e-05
2182	3.5e-06
2194	2.1e-05
2206	3.15e-05
2218	3.85e-05
2230	5.25e-05
2242	7.7e-05
2254	7.35e-05
2266	7.7e-05
2278	6.3e-05
2290	8.75e-05
2302	7.7e-05
2314	8.05e-05
2326	8.4e-05
2338	4.55e-05
2350	8.05e-05
2362	7.35e-05
2374	0.000126
2386	0.0001505
2398	0.000133
2410	0.00014
2422	0.0001645
2434	0.000126
2446	0.000126
2458	0.000133
2470	0.0001435
2482	0.00014
2494	0.00014
2506	0.000126
2518	0.000133
2530	0.000119
2542	0.000133
2554	0.0001785
2566	0.0002415
2578	0.000315
2590	0.0004095
2602	0.0004445
2614	0.00056
2626	0.000553
2638	0.000532
2650	0.0005075
2662	0.0005285
2674	0.0005495
2686	0.0005845
2698	0.000609
2710	0.0006615
2722	0.000784
2734	0.0008925
2746	0.0009415
2758	0.000952
2770	0.0010115
2782	0.0011025
2794	0.0012495
2806	0.0015365
2818	0.0018585
2830	0.00245
2842	0.0036435
2854	0.006062
2866	0.010703
2878	0.015505
2890	0.017906
2902	0.0168
2914	0.0150605
2926	0.015225
2938	0.0173495
2950	0.0222915
2962	0.0313985
2974	0.0340725
2986	0.0253505
2998	0.012264
3010	0.0045535
3022	0.0019565
3034	0.001302
3046	0.0010885
3058	0.001036
3070	0.0009555
3082	0.000847
3094	0.0007595
3106	0.000672
3118	0.000721
3130	0.000651
3142	0.000644
3154	0.000651
3166	0.000644
3178	0.00063
3190	0.000581
3202	0.000469
3214	0.000336
3226	0.0002415
3238	0.000182
3250	0.0001015
3262	6.65e-05
3274	6.3e-05
3286	4.9e-05
3298	9.45e-05
3310	8.05e-05
3322	6.65e-05
3334	8.4e-05
3346	8.75e-05
3358	5.95e-05
3370	9.1e-05
3382	0.000126
3394	0.0001295
3406	0.0001715
3418	0.0001085
3430	0.0001085
3442	0.0001435
3454	0.0001015
3466	0.0001225
3478	7.7e-05
3490	0.000105
3502	8.05e-05
3514	5.95e-05
3526	7.35e-05
3538	4.9e-05
3550	5.6e-05
3562	8.05e-05
3574	5.95e-05
3586	6.65e-05
3598	0.000112
3610	0.000259
3622	0.0005915
3634	0.0013125
3646	0.002359
3658	0.0028595
3670	0.002191
3682	0.0010115
3694	0.000336
3706	0.0001505
3718	8.4e-05
3730	6.65e-05
3742	5.95e-05
3754	7e-06
3766	4.55e-05
3778	8.75e-05
3790	9.8e-05
3802	2.8e-05
3814	9.8e-05
3826	0.000112
3838	7.35e-05
