Infrared Spectrum: Propane, 1,2-dichloro-
Formula: C 3 H 6 Cl 2
CAS: 78-87-5
State: gas
Origin: Sadtler Research Labs Under US-EPA Contract
1/CM	ABSORBANCE
450	0.0501198
462	0.0527827
474	0.0464108
486	0.0570624
498	0.0487408
510	0.0405619
522	0.0569673
534	0.0563967
546	0.037471
558	0.033857
570	0.0409898
582	0.0497869
594	0.0419884
606	0.0487884
618	0.0702819
630	0.0899684
642	0.095532
654	0.114315
666	0.26282
678	0.47552
690	0.352788
702	0.0856412
714	0.0679043
726	0.116407
738	0.264579
750	0.321784
762	0.159917
774	0.0767965
786	0.044794
798	0.0404192
810	0.044794
822	0.0420835
834	0.0386598
846	0.0424639
858	0.0472667
870	0.0467436
882	0.0489786
894	0.0561589
906	0.0739434
918	0.0773196
930	0.0543519
942	0.0412276
954	0.0388975
966	0.0392304
978	0.0373759
990	0.0500723
1002	0.089588
1014	0.19211
1026	0.19406
1038	0.0835013
1050	0.0567771
1062	0.0738958
1074	0.073135
1086	0.0470765
1098	0.0404192
1110	0.0506429
1122	0.0549226
1134	0.0435576
1146	0.0351885
1158	0.0371381
1170	0.0529254
1182	0.129009
1194	0.175277
1206	0.11208
1218	0.0590596
1230	0.124776
1242	0.141134
1254	0.0950564
1266	0.108561
1278	0.104234
1290	0.0804104
1302	0.0427017
1314	0.0383745
1326	0.0510708
1338	0.0557309
1350	0.0452695
1362	0.0459352
1374	0.0862593
1386	0.111414
1398	0.107135
1410	0.0494541
1422	0.0482177
1434	0.0923935
1446	0.13714
1458	0.145271
1470	0.0891124
1482	0.0509757
1494	0.02972
1506	0.0242991
1518	0.0200669
1530	0.0165481
1542	0.0235382
1554	0.0171187
1566	0.0167383
1578	0.0182124
1590	0.0158824
1602	0.014218
1614	0.0175942
1626	0.0147887
1638	0.0186879
1650	0.0141229
1662	0.0141705
1674	0.0153593
1686	0.0186404
1698	0.0167859
1710	0.0156446
1722	0.0149313
1734	0.0155495
1746	0.0157873
1758	0.0153593
1770	0.0177844
1782	0.0154544
1794	0.0160726
1806	0.0127915
1818	0.00898733
1830	0.00851181
1842	0.00760832
1854	0.00732301
1866	0.00756077
1878	0.00765587
1890	0.00727546
1902	0.00670483
1914	0.00632442
1926	0.00660973
1938	0.00684749
1950	0.00627686
1962	0.00561114
1974	0.00613421
1986	0.00532582
1998	0.00504051
2010	0.00461254
2022	0.00461254
2034	0.00456499
2046	0.00370906
2058	0.00323354
2070	0.00309088
2082	0.0012839
2094	0.00218739
2106	0.00299578
2118	0.00256781
2130	0.00204474
2142	0.00185453
2154	0.00095104
2166	0.00114125
2178	0.000523072
2190	0.000285312
2202	0.00095104
2214	0.000618176
2226	0.000523072
2238	0.0011888
2250	0.00223494
2262	0.00233005
2274	0.00190208
2286	0.00299578
2298	0.00427968
2310	0.00446989
2322	0.00223494
2334	0.00223494
2346	0.00489786
2358	0.000380416
2370	0.00613421
2382	0.00404192
2394	0.00114125
2406	0.000903488
2418	0.000998592
2430	0.00161677
2442	0.00209229
2454	0.00313843
2466	0.0034713
2478	0.00218739
2490	0.00252026
2502	0.00318598
2514	0.00266291
2526	0.0023776
2538	0.00175942
2550	0.00175942
2562	0.00233005
2574	0.00194963
2586	0.0024727
2598	0.00266291
2610	0.00223494
2622	0.00290067
2634	0.00271046
2646	0.00375661
2658	0.00328109
2670	0.00261536
2682	0.0024727
2694	0.00242515
2706	0.00171187
2718	0.0022825
2730	0.00442234
2742	0.00423213
2754	0.00404192
2766	0.00370906
2778	0.00328109
2790	0.00285312
2802	0.00313843
2814	0.00513562
2826	0.00746566
2838	0.0102712
2850	0.0126488
2862	0.0189257
2874	0.0351885
2886	0.0398486
2898	0.0328109
2910	0.0285788
2922	0.0393731
2934	0.0737532
2946	0.111224
2958	0.119593
2970	0.128295
2982	0.193822
2994	0.260442
3006	0.193965
3018	0.0813139
3030	0.0340948
3042	0.0154068
3054	0.00936774
3066	0.0071328
3078	0.00679994
3090	0.00646707
3102	0.00546848
3114	0.00399437
3126	0.00442234
3138	0.00337619
3150	0.00337619
3162	0.00370906
3174	0.00313843
3186	0.00370906
3198	0.00432723
3210	0.00370906
3222	0.00446989
3234	0.00499296
3246	0.00337619
3258	0.00204474
3270	0.00166432
3282	0.00242515
3294	0.00218739
3306	0.00166432
3318	0.00256781
3330	0.00218739
3342	0.00332864
3354	0.00370906
3366	0.00271046
3378	0.00194963
3390	0.00166432
3402	0.00285312
3414	0.00266291
3426	0.00194963
3438	0.00299578
3450	9.5104e-05
3462	0.00285312
3474	0.00252026
3486	0.00095104
3498	0.0036615
3510	0.00332864
3522	0.00408947
3534	0.0036615
3546	0.00190208
3558	0.00285312
3570	0.00489786
3582	0.00608666
3594	0.00504051
3606	0.00370906
3618	0.0035664
3630	0.00489786
3642	0.00432723
3654	0.0024727
3666	0.00252026
3678	0.00190208
3690	0.0046601
3702	0.00337619
3714	0.00537338
3726	0.00185453
3738	0.00190208
3750	0.00508806
3762	0.00285312
3774	0.00732301
3786	0.00446989
3798	0.00375661
3810	0.00618176
3822	0.00456499
3834	0.00432723
3846	0.00770342
3858	0.00161677
3870	0.0011888
3882	0.00508806
3894	0.00394682
3906	0.00917754
3918	0.00285312
3930	0.00427968
3942	0.00399437
3954	0.00746566
3966	0
