Infrared Spectrum: 1,2-DICHLOROPROPANE
Formula: C3 H6 Cl2
CAS: 78-87-5
Class: COBLENTZ
Instrument: Not specified, most likely a prism, grating, or hybrid spectrometer.
Sampling: TRANSMISSION
Path length: 0.0025 CM
Resolution: 4
Origin: W.T. BOLLETER
MICROMETERS	TRANSMITTANCE
14.543	0.085
14.613	0.06
14.683	0.031
14.7531	0.015
14.8231	0.012
14.8931	0.01
14.9631	0.01
15.0331	0.01
15.1032	0.01
15.1732	0.012
15.2432	0.012
15.3132	0.012
15.3833	0.024
15.4533	0.039
15.5233	0.074
15.5933	0.101
15.6633	0.109
15.7334	0.099
15.8034	0.07
15.8734	0.035
15.9434	0.021
16.0134	0.015
16.0835	0.012
16.1535	0.01
16.2235	0.012
16.2935	0.017
16.3635	0.026
16.4336	0.062
16.5036	0.134
16.5736	0.244
16.6436	0.361
16.7136	0.452
16.7837	0.539
16.8537	0.617
16.9237	0.671
16.9937	0.714
17.0638	0.751
17.1338	0.776
17.2038	0.79
17.2738	0.804
17.3438	0.82
17.4139	0.829
17.4839	0.835
17.5539	0.843
17.6239	0.849
17.6939	0.858
17.764	0.863
17.834	0.868
17.904	0.872
17.974	0.877
18.044	0.875
18.1141	0.87
18.1841	0.863
18.2541	0.851
18.3241	0.833
18.3941	0.806
18.4642	0.776
18.5342	0.726
18.6042	0.679
18.6742	0.599
18.7443	0.485
18.8143	0.347
18.8843	0.203
18.9543	0.131
19.0243	0.09
19.0944	0.125
19.1644	0.246
19.2344	0.386
19.3044	0.512
19.3744	0.632
19.4445	0.718
19.5145	0.774
19.5845	0.817
19.6545	0.84
19.7245	0.861
19.7946	0.872
19.8646	0.882
19.9346	0.893
20.0046	0.898
20.0747	0.904
20.1447	0.907
20.2147	0.911
20.2847	0.916
20.3547	0.918
20.4248	0.921
20.4948	0.921
20.5648	0.921
20.6348	0.92
20.7048	0.921
20.7749	0.921
20.8449	0.921
20.9149	0.921
20.9849	0.918
21.0549	0.914
21.125	0.914
21.195	0.914
21.265	0.918
21.335	0.916
21.405	0.913
21.4751	0.909
21.5451	0.906
21.6151	0.902
21.6851	0.897
21.7552	0.893
21.8252	0.886
21.8952	0.882
21.9652	0.875
22.0352	0.87
22.1053	0.87
22.1753	0.868
22.2453	0.865
22.3153	0.867
22.3853	0.87
22.4554	0.868
22.5254	0.868
22.5954	0.867
22.6654	0.865
22.7354	0.861
22.8055	0.858
22.8755	0.851
22.9455	0.843
23.0155	0.835
23.0855	0.817
23.1556	0.804
23.2256	0.783
23.2956	0.757
23.3656	0.73
23.4357	0.696
23.5057	0.65
23.5757	0.599
23.6457	0.524
23.7157	0.464
23.7858	0.386
23.8558	0.301
23.9258	0.228
23.9958	0.175
24.0658	0.14
24.1359	0.129
24.2059	0.14
24.2759	0.184
24.3459	0.258
24.4159	0.349
24.486	0.427
24.556	0.514
24.626	0.57
24.696	0.618
24.7661	0.657
24.8361	0.686
24.9061	0.707
24.9761	0.718
25.0461	0.728
25.1162	0.734
25.1862	0.732
25.2562	0.718
25.3262	0.705
25.3962	0.68
25.4663	0.657
25.5363	0.606
25.6063	0.549
25.6763	0.489
25.7463	0.411
25.8164	0.345
25.8864	0.271
25.9564	0.205
26.0264	0.156
26.0964	0.127
26.1665	0.109
26.2365	0.109
26.3065	0.152
26.3765	0.21
26.4466	0.28
26.5166	0.345
26.5866	0.425
26.6566	0.487
26.7266	0.547
26.7967	0.588
26.8667	0.638
26.9367	0.666
27.0067	0.684
27.0767	0.698
27.1468	0.71
27.2168	0.718
27.2868	0.718
27.3568	0.718
27.4268	0.703
27.4969	0.695
27.5669	0.668
27.6369	0.636
27.7069	0.601
27.7769	0.56
27.847	0.51
27.917	0.45
27.987	0.395
28.057	0.336
28.1271	0.289
28.1971	0.248
28.2671	0.212
28.3371	0.198
28.4071	0.193
28.4772	0.195
28.5472	0.203
28.6172	0.235
28.6872	0.257
28.7572	0.287
28.8273	0.317
28.8973	0.345
28.9673	0.367
29.0373	0.37
29.1073	0.365
29.1774	0.356
29.2474	0.328
29.3174	0.299
29.3874	0.255
29.4575	0.225
29.5275	0.196
29.5975	0.17
29.6675	0.164
29.7375	0.17
29.8076	0.189
29.8776	0.225
29.9476	0.269
30.0176	0.333
30.0876	0.395
30.1577	0.445
30.2277	0.5
30.2977	0.537
30.3677	0.574
30.4377	0.622
30.5078	0.647
30.5778	0.68
30.6478	0.714
30.7178	0.723
30.7878	0.737
30.8579	0.746
30.9279	0.75
30.9979	0.755
31.0679	0.762
31.138	0.765
31.208	0.765
31.278	0.764
31.348	0.764
31.418	0.76
31.4881	0.755
31.5581	0.75
31.6281	0.75
31.6981	0.746
31.7681	0.739
31.8382	0.735
31.9082	0.734
31.9782	0.735
32.0482	0.735
32.1182	0.737
32.1883	0.742
32.2583	0.746
32.3283	0.75
32.3983	0.753
32.4683	0.76
32.5384	0.767
32.6084	0.773
32.6784	0.78
32.7484	0.789
32.8185	0.794
32.8885	0.797
32.9585	0.799
33.0285	0.797
33.0985	0.794
33.1686	0.789
33.2386	0.792
33.3086	0.797
33.3786	0.801
33.4486	0.797
33.5187	0.803
33.5887	0.801
33.6587	0.797
33.7287	0.792
33.7987	0.792
33.8688	0.785
33.9388	0.787
34.0088	0.78
34.0788	0.769
34.1489	0.765
34.2189	0.751
34.2889	0.75
34.3589	0.748
34.4289	0.734
34.499	0.726
34.569	0.718
34.639	0.702
34.709	0.691
34.779	0.675
34.8491	0.652
34.9191	0.632
34.9891	0.618
35.0591	0.597
35.1291	0.578
35.1992	0.565
35.2692	0.553
35.3392	0.542
35.4092	0.531
35.4792	0.523
35.5493	0.508
35.6193	0.503
35.6893	0.501
35.7593	0.503
35.8294	0.505
35.8994	0.51
35.9694	0.51
36.0394	0.515
36.1094	0.515
36.1795	0.517
36.2495	0.515
36.3195	0.515
36.3895	0.515
36.4595	0.515
36.5296	0.521
36.5996	0.524
36.6696	0.521
36.7396	0.521
36.8096	0.521
36.8797	0.524
36.9497	0.526
37.0197	0.528
37.0897	0.526
37.1597	0.524
37.2298	0.526
37.2998	0.524
37.3698	0.528
37.4398	0.528
37.5099	0.53
37.5799	0.533
37.6499	0.537
37.7199	0.539
37.7899	0.537
37.86	0.533
37.93	0.531
38	0.53
