Infrared Spectrum: PROPANE, 1,2-DICHLORO-
Formula: C3 H6 Cl2
CAS: 78-87-5
State: SOLUTION (10% IN CCl4 FOR 3800-1333, AND 10% IN CS2 FOR 1333-450 CM^-^1)
Boiling point: 96 C
Class: COBLENTZ III
Instrument: DOW KBr FOREPRISM-GRATING
Instrument parameters: BLAZED AT 3.5, 12.0, 20.0 MICRON, CHANGED AT 5.0, 7.5, 14.9 MICRON
Sampling: TRANSMISSION
Path length: 0.010, 0.011 CM
Resolution: 4
Origin: DOW CHEMICAL COMPANY
1/CM	TRANSMITTANCE
389.577	0.601
398.263	0.605
406.949	0.639
415.636	0.737
424.322	0.827
433.008	0.877
441.694	0.907
450.381	0.929
459.067	0.942
467.753	0.953
476.439	0.97
485.125	0.978
493.812	0.985
502.498	0.986
511.184	0.98
519.87	0.97
528.557	0.898
537.243	0.978
545.929	1.002
554.615	1.008
563.301	1.009
571.988	1.01
580.674	1.008
589.36	1.005
598.046	0.997
606.733	0.976
615.419	0.86
624.105	0.766
632.791	0.832
641.477	0.898
650.164	0.826
658.85	0.653
667.536	0.241
676.222	0.2261
684.909	0.827
693.595	0.919
702.281	0.933
710.967	0.934
719.653	0.906
728.34	0.605
737.026	0.463
745.712	0.3611
754.398	0.5771
763.084	0.91
771.771	0.976
780.457	0.991
789.143	0.991
797.829	0.994
806.516	1
815.202	1
823.888	0.991
832.574	0.979
841.26	0.944
849.947	0.857
858.633	0.811
867.319	0.832
876.005	0.851
884.692	0.898
893.378	0.934
902.064	0.841
910.75	0.794
919.436	0.933
928.123	0.979
936.809	0.986
945.495	0.983
954.181	0.982
962.868	0.985
971.554	0.985
980.24	0.976
988.926	0.949
997.612	0.779
1006.3	0.677
1014.98	0.288
1023.67	0.817
1032.36	0.917
1041.04	0.944
1049.73	0.941
1058.42	0.87
1067.1	0.6831
1075.79	0.917
1084.47	0.941
1093.16	0.947
1101.85	0.93
1110.53	0.85
1119.22	0.87
1127.91	0.906
1136.59	0.945
1145.28	0.952
1153.96	0.955
1162.65	0.945
1171.34	0.872
1180.02	0.831
1188.71	0.353
1197.4	0.855
1206.08	0.921
1214.77	0.913
1223.45	0.851
1232.14	0.373
1240.83	0.816
1249.51	0.729
1258.2	0.714
1266.89	0.769
1275.57	0.65
1284.26	0.847
1292.94	0.919
1301.63	0.932
1310.32	0.923
1319	0.839
1327.69	0.798
1336.38	0.866
1345.06	0.869
1353.75	0.914
1362.43	0.894
1371.12	0.851
1379.81	0.7066
1388.49	0.794
1397.18	0.892
1405.86	0.896
1414.55	0.889
1423.24	0.845
1431.92	0.5881
1440.61	0.6095
1449.3	0.58
1457.98	0.3111
1466.67	0.853
1475.35	0.876
1484.04	0.876
1492.73	0.854
1501.41	0.828
1510.1	0.778
1518.79	0.729
1527.47	0.683
1536.16	0.615
1544.84	0.523
1553.53	0.535
1562.22	0.608
1570.9	0.675
1579.59	0.697
1588.28	0.744
1596.96	0.831
1605.65	0.896
1614.33	0.932
1623.02	0.947
1631.71	0.956
1640.39	0.959
1649.08	0.96
1657.77	0.961
1666.45	0.964
1675.14	0.968
1683.82	0.971
1692.51	0.976
1701.2	0.98
1709.88	0.979
1718.57	0.987
1727.25	0.993
1735.94	0.994
1744.63	1
1753.31	1
1762	1.002
1770.69	1.002
1779.37	1
1788.06	0.998
1796.74	0.997
1805.43	0.995
1814.12	0.998
1822.8	0.994
1831.49	0.994
1840.18	0.993
1848.86	0.991
1857.55	0.991
1866.23	0.997
1874.92	1
1883.61	1
1892.29	1.001
1900.98	1.001
1909.67	1.006
1918.35	1.004
1927.04	1.002
1935.72	1.001
1944.41	1.001
1953.1	1.001
1961.78	1.001
1970.47	1.002
1979.16	1.001
1987.84	1.001
1996.53	1.001
2005.21	1.002
2013.9	0.991
2022.59	0.99
2031.27	0.991
2039.96	0.99
2048.65	0.9929
2057.33	0.995
2066.02	0.997
2074.7	0.998
2083.39	0.998
2092.08	0.9999
2100.76	1
2109.45	1
2118.13	1
2126.82	1
2135.51	0.9982
2144.19	0.997
2152.88	0.998
2161.57	1
2170.25	1
2178.94	1.0086
2187.62	1.0003
2196.31	0.994
2205	0.993
2213.68	0.991
2222.37	0.9927
2231.06	0.9901
2239.74	0.987
2248.43	0.983
2257.11	0.979
2265.8	0.979
2274.49	0.978
2283.17	0.976
2291.86	0.9664
2300.55	0.9558
2309.23	0.9554
2317.92	0.9776
2326.6	0.9868
2335.29	0.991
2343.98	0.991
2352.66	0.993
2361.35	0.991
2370.04	0.993
2378.72	0.991
2387.41	0.989
2396.09	0.986
2404.78	0.9925
2413.47	0.9915
2422.15	0.991
2430.84	0.99
2439.53	0.99
2448.21	0.987
2456.9	0.986
2465.58	0.985
2474.27	0.9897
2482.96	0.991
2491.64	0.99
2500.33	0.9876
2509.01	0.985
2517.7	0.99
2526.39	0.991
2535.07	0.991
2543.76	0.991
2552.45	0.993
2561.13	0.991
2569.82	0.99
2578.5	0.989
2587.19	0.99
2595.88	0.991
2604.56	0.991
2613.25	0.9922
2621.94	0.991
2630.62	0.99
2639.31	0.99
2647.99	0.99
2656.68	0.989
2665.37	0.986
2674.05	0.9866
2682.74	0.989
2691.43	0.987
2700.11	0.987
2708.8	0.9854
2717.48	0.979
2726.17	0.983
2734.86	0.979
2743.54	0.9811
2752.23	0.986
2760.92	0.985
2769.6	0.986
2778.29	0.985
2786.97	0.985
2795.66	0.983
2804.35	0.98
2813.03	0.9755
2821.72	0.9675
2830.41	0.9595
2839.09	0.9555
2847.78	0.9649
2856.46	0.9343
2865.15	0.8765
2873.84	0.885
2882.52	0.9232
2891.21	0.9326
2899.89	0.9201
2908.58	0.9219
2917.27	0.9169
2925.95	0.8122
2934.64	0.7228
2943.33	0.7588
2952.01	0.7626
2960.7	0.7504
2969.38	0.7044
2978.07	0.6748
2986.76	0.491
2995.44	0.5368
3004.13	0.6842
3012.82	0.8941
3021.5	0.9479
3030.19	0.9704
3038.87	0.9767
3047.56	0.979
3056.25	0.98
3064.93	0.9853
3073.62	0.987
3082.31	0.9876
3090.99	0.989
3099.68	0.989
3108.36	0.99
3117.05	0.9924
3125.74	0.991
3134.42	0.99
3143.11	0.99
3151.8	0.99
3160.48	0.99
3169.17	0.989
3177.85	0.989
3186.54	0.989
3195.23	0.989
3203.91	0.987
3212.6	0.987
3221.28	0.986
3229.97	0.987
3238.66	0.99
3247.34	0.99
3256.03	0.991
3264.72	0.991
3273.4	0.991
3282.09	0.9908
3290.77	0.99
3299.46	0.99
3308.15	0.989
3316.83	0.986
3325.52	0.986
3334.21	0.9852
3342.89	0.9873
3351.58	0.989
3360.26	0.987
3368.95	0.987
3377.64	0.987
3386.32	0.987
3395.01	0.986
3403.7	0.987
3412.38	0.9888
3421.07	0.987
3429.75	0.9891
3438.44	0.989
3447.13	0.987
3455.81	0.987
3464.5	0.986
3473.19	0.986
3481.87	0.989
3490.56	0.987
3499.24	0.987
3507.93	0.987
3516.62	0.987
3525.3	0.986
3533.99	0.986
3542.68	0.989
3551.36	0.986
3560.05	0.985
3568.73	0.983
3577.42	0.983
3586.11	0.983
3594.79	0.983
3603.48	0.983
3612.16	0.985
3620.85	0.985
3629.54	0.989
3638.22	0.985
3646.91	0.987
3655.6	0.986
3664.28	0.9831
3672.97	0.986
3681.65	0.983
3690.34	0.9821
3699.03	0.9799
3707.71	0.985
3716.4	0.983
3725.09	0.9851
3733.77	0.9802
3742.46	0.9818
3751.14	0.9848
3759.83	0.986
3768.52	0.987
3777.2	0.989
3785.89	0.993
3794.58	0.9891
