Infrared Spectrum: Propane, 1,2-dichloro-,
Formula: C3 H6 Cl2
CAS: 78-87-5
State: LIQUID (NEAT)
Boiling point: 96.8 C
Class: COBLENTZ III
Instrument: BAIRD (GRATING)
Instrument parameters: NaCl PRISM
Path length: 0.003 CM
Resolution: 2
Origin: WYANDOTTE CHEMICALS CORP.
1/CM	TRANSMITTANCE
625	0.7431
634	0.7878
643	0.7343
652	0.4662
661	0.2589
670	0.2156
679	0.4724
688	0.6928
697	0.7037
706	0.5565
715	0.421
724	0.1895
733	0.1632
742	0.1154
751	0.1734
760	0.6352
769	0.7911
778	0.8935
787	0.923
796	0.9331
805	0.9489
814	0.9457
823	0.9333
832	0.9236
841	0.921
850	0.8952
859	0.8434
868	0.8089
877	0.727
886	0.7395
895	0.7923
904	0.5555
913	0.3984
922	0.7058
931	0.83
940	0.8291
949	0.8558
958	0.8814
967	0.8883
976	0.8885
985	0.8555
994	0.7703
1003	0.4028
1012	0.2597
1021	0.1097
1030	0.519
1039	0.707
1048	0.757
1057	0.7688
1066	0.6216
1075	0.3983
1084	0.6909
1093	0.8292
1102	0.8497
1111	0.8215
1120	0.627
1129	0.6104
1138	0.723
1147	0.8455
1156	0.8606
1165	0.8495
1174	0.8136
1183	0.6556
1192	0.5447
1201	0.1659
1210	0.5305
1219	0.7395
1228	0.7233
1237	0.5381
1246	0.1902
1255	0.4709
1264	0.3404
1273	0.3476
1282	0.3371
1291	0.3276
1300	0.6549
1309	0.7943
1318	0.7985
1327	0.7571
1336	0.5006
1345	0.5436
1354	0.6729
1363	0.7989
1372	0.7897
1381	0.7115
1390	0.3224
1399	0.3271
1408	0.6962
1417	0.7575
1426	0.7432
1435	0.5592
1444	0.2905
1453	0.2644
1462	0.1894
1471	0.1661
1480	0.4244
1489	0.6997
1498	0.7846
1507	0.8455
1516	0.8764
1525	0.8961
1534	0.912
1543	0.9211
1552	0.926
1561	0.9289
1570	0.9315
1579	0.9337
1588	0.9318
1597	0.9302
1606	0.9288
1615	0.9284
1624	0.9289
1633	0.9297
1642	0.9302
1651	0.9304
1660	0.9306
1669	0.9304
1678	0.9302
1687	0.9292
1696	0.9271
1705	0.9251
1714	0.9237
1723	0.9215
1732	0.9214
1741	0.9244
1750	0.9291
1759	0.9343
1768	0.9391
1777	0.9429
1786	0.9467
1795	0.9487
1804	0.9494
1813	0.9498
1822	0.95
1831	0.95
1840	0.9499
1849	0.9498
1858	0.9494
1867	0.949
1876	0.9485
1885	0.9482
1894	0.9479
1903	0.9476
1912	0.9474
1921	0.9472
1930	0.947
1939	0.9468
1948	0.9466
1957	0.9463
1966	0.9443
1975	0.9412
1984	0.9382
1993	0.9365
2002	0.9359
2011	0.9361
2020	0.9364
2029	0.9369
2038	0.9373
2047	0.9371
2056	0.9369
2065	0.9368
2074	0.9371
2083	0.9373
2092	0.9376
2101	0.9363
2110	0.9351
2119	0.9332
2128	0.9305
2137	0.9305
2146	0.9333
2155	0.9336
2164	0.9321
2173	0.9292
2182	0.9263
2191	0.9225
2200	0.919
2209	0.9154
2218	0.9116
2227	0.9081
2236	0.907
2245	0.9057
2254	0.9044
2263	0.8999
2272	0.8956
2281	0.8942
2290	0.8962
2299	0.8987
2308	0.9022
2317	0.9032
2326	0.9008
2335	0.899
2344	0.8972
2353	0.8965
2362	0.8964
2371	0.8979
2380	0.9002
2389	0.9033
2398	0.9057
2407	0.9051
2416	0.9025
2425	0.8989
2434	0.8952
2443	0.8918
2452	0.8915
2461	0.8926
2470	0.8939
2479	0.8951
2488	0.8962
2497	0.896
2506	0.8957
2515	0.8955
2524	0.8946
2533	0.8938
2542	0.893
2551	0.8922
2560	0.8911
2569	0.89
2578	0.8892
2587	0.8898
2596	0.8907
2605	0.8929
2614	0.8949
2623	0.8957
2632	0.8952
2641	0.8946
2650	0.8938
2659	0.8926
2668	0.8914
2677	0.8898
2686	0.8882
2695	0.8867
2704	0.8852
2713	0.8837
2722	0.8823
2731	0.8808
2740	0.8794
2749	0.878
2758	0.8766
2767	0.8764
2776	0.877
2785	0.8776
2794	0.8779
2803	0.8776
2812	0.8762
2821	0.8703
2830	0.8591
2839	0.8405
2848	0.8146
2857	0.7832
2866	0.7521
2875	0.7211
2884	0.6904
2893	0.6618
2902	0.6482
2911	0.6447
2920	0.645
2929	0.6452
2938	0.6206
2947	0.5563
2956	0.4924
2965	0.4289
2974	0.3792
2983	0.3566
2992	0.3428
3001	0.3279
3010	0.3042
3019	0.2612
3028	0.2247
3037	0.2245
3046	0.3358
3055	0.4723
3064	0.6333
3073	0.724
3082	0.7547
3091	0.7863
3100	0.8134
3109	0.8267
3118	0.8352
3127	0.8417
3136	0.8468
3145	0.8514
3154	0.8546
3163	0.8574
3172	0.8591
3181	0.8608
3190	0.8607
3199	0.8605
3208	0.8602
3217	0.8598
3226	0.8592
3235	0.8594
3244	0.8599
3253	0.8604
3262	0.8609
3271	0.8622
3280	0.8643
3289	0.8661
3298	0.8676
3307	0.8691
3316	0.8705
3325	0.8716
3334	0.8726
3343	0.8728
3352	0.8731
3361	0.8733
3370	0.8701
3379	0.873
3388	0.8728
3397	0.8727
3406	0.8725
3415	0.8722
3424	0.8718
3433	0.8715
3442	0.8711
3451	0.8707
3460	0.8701
3469	0.8696
3478	0.869
3487	0.8684
3496	0.8677
3505	0.8669
3514	0.866
3523	0.8652
3532	0.8644
3541	0.8636
3550	0.8627
3559	0.8615
3568	0.8602
3577	0.859
3586	0.8578
3595	0.8564
3604	0.855
3613	0.8535
3622	0.8523
3631	0.8518
3640	0.8516
3649	0.8522
3658	0.8533
3667	0.8551
3676	0.8578
3685	0.8614
3694	0.8654
3703	0.8693
3712	0.8731
3721	0.8761
3730	0.8773
3739	0.8772
3748	0.8771
3757	0.8769
3766	0.8761
3775	0.8751
3784	0.874
3793	0.8729
3802	0.8719
3811	0.8713
3820	0.871
3829	0.871
3838	0.8712
3847	0.8715
3856	0.8718
3865	0.8721
3874	0.8725
3883	0.8728
3892	0.8731
3901	0.8735
3910	0.8739
3919	0.8741
3928	0.874
3937	0.8739
3946	0.8733
3955	0.8719
3964	0.8704
3973	0.8691
3982	0.8678
3991	0.8666
4000	0.8655
