Infrared Spectrum: Thiophene
Formula: C4 H4 S
CAS: 110-02-1
State: GAS (50 mmHg, N2 ADDED, TOTAL PRESSURE 600 mmHg)
Class: COBLENTZ
Instrument: DOW KBr FOREPRISM-GRATING
Instrument parameters: GRATING CHANGED AT 5.0, 7.5, 15.0 MICRON
Sampling: TRANSMISSION
Path length: 5 CM
Resolution: 2
Origin: DOW CHEMICAL COMPANY
1/CM	TRANSMITTANCE
385	0.8166
394	0.8148
403	0.8121
412	0.8087
421	0.8053
430	0.7999
439	0.7942
448	0.7905
457	0.802
466	0.8054
475	0.8111
484	0.8175
493	0.82
502	0.816
511	0.8095
520	0.8036
529	0.8024
538	0.8047
547	0.8079
556	0.8108
565	0.8097
574	0.808
583	0.81
592	0.8173
601	0.823
610	0.828
619	0.8331
628	0.8385
637	0.844
646	0.8489
655	0.8516
664	0.8498
673	0.8218
682	0.6502
691	0.3596
700	0.1375
709	0.2174
718	0.2967
727	0.1058
736	0.1529
745	0.5561
754	0.7779
763	0.8714
772	0.8745
781	0.8728
790	0.8709
799	0.8617
808	0.8616
817	0.829
826	0.6116
835	0.4242
844	0.1574
853	0.3915
862	0.7997
871	0.8293
880	0.8286
889	0.8236
898	0.8343
907	0.8435
916	0.8467
925	0.8477
934	0.8469
943	0.8473
952	0.8478
961	0.8476
970	0.8468
979	0.8443
988	0.8378
997	0.8309
1006	0.8248
1015	0.8138
1024	0.7846
1033	0.7877
1042	0.8106
1051	0.7913
1060	0.8015
1069	0.7292
1078	0.7005
1087	0.7527
1096	0.6918
1105	0.7757
1114	0.8217
1123	0.8295
1132	0.8306
1141	0.8296
1150	0.8284
1159	0.8258
1168	0.8226
1177	0.8202
1186	0.8114
1195	0.8004
1204	0.7884
1213	0.7803
1222	0.7845
1231	0.7578
1240	0.702
1249	0.6266
1258	0.7432
1267	0.611
1276	0.7169
1285	0.7508
1294	0.7805
1303	0.8033
1312	0.8059
1321	0.8029
1330	0.7979
1339	0.7814
1348	0.747
1357	0.6971
1366	0.6191
1375	0.5845
1384	0.5708
1393	0.5911
1402	0.5093
1411	0.4279
1420	0.5801
1429	0.6761
1438	0.7771
1447	0.7935
1456	0.7895
1465	0.8024
1474	0.8085
1483	0.8092
1492	0.8072
1501	0.8038
1510	0.7817
1519	0.7209
1528	0.6122
1537	0.6345
1546	0.5818
1555	0.7332
1564	0.703
1573	0.7113
1582	0.7109
1591	0.7365
1600	0.7918
1609	0.8123
1618	0.8051
1627	0.8105
1636	0.8055
1645	0.8138
1654	0.7975
1663	0.8137
1672	0.8094
1681	0.8059
1690	0.8062
1699	0.7954
1708	0.7885
1717	0.7614
1726	0.7535
1735	0.7285
1744	0.7256
1753	0.7299
1762	0.7589
1771	0.7512
1780	0.7743
1789	0.7692
1798	0.7348
1807	0.7768
1816	0.8072
1825	0.8124
1834	0.8124
1843	0.8124
1852	0.8123
1861	0.8115
1870	0.8107
1879	0.8097
1888	0.8086
1897	0.8079
1906	0.8075
1915	0.8089
1924	0.8104
1933	0.812
1942	0.813
1951	0.8126
1960	0.811
1969	0.8103
1978	0.8117
1987	0.8126
1996	0.8131
2005	0.8137
2014	0.8147
2023	0.8157
2032	0.817
2041	0.8171
2050	0.8157
2059	0.8142
2068	0.8132
2077	0.8125
2086	0.8121
2095	0.8117
2104	0.8113
2113	0.8112
2122	0.8114
2131	0.8115
2140	0.8113
2149	0.8104
2158	0.8098
2167	0.8093
2176	0.8102
2185	0.8124
2194	0.8166
2203	0.8209
2212	0.8233
2221	0.8247
2230	0.8256
2239	0.8258
2248	0.826
2257	0.826
2266	0.8262
2275	0.8265
2284	0.8276
2293	0.8282
2302	0.8287
2311	0.8291
2320	0.8295
2329	0.8298
2338	0.8303
2347	0.8304
2356	0.8306
2365	0.8307
2374	0.831
2383	0.8313
2392	0.8316
2401	0.8319
2410	0.8324
2419	0.8329
2428	0.8335
2437	0.8343
2446	0.836
2455	0.8373
2464	0.8376
2473	0.8373
2482	0.8377
2491	0.8384
2500	0.8394
2509	0.8408
2518	0.8418
2527	0.842
2536	0.8423
2545	0.8422
2554	0.8421
2563	0.8423
2572	0.8427
2581	0.8431
2590	0.8437
2599	0.8444
2608	0.8451
2617	0.8455
2626	0.8457
2635	0.8459
2644	0.8461
2653	0.8463
2662	0.8466
2671	0.8466
2680	0.8464
2689	0.8461
2698	0.8458
2707	0.8454
2716	0.8451
2725	0.8447
2734	0.8444
2743	0.844
2752	0.8437
2761	0.8433
2770	0.8429
2779	0.8423
2788	0.8415
2797	0.8401
2806	0.8398
2815	0.8405
2824	0.8423
2833	0.8479
2842	0.8541
2851	0.8491
2860	0.8424
2869	0.838
2878	0.836
2887	0.8354
2896	0.8384
2905	0.8425
2914	0.8465
2923	0.8401
2932	0.8309
2941	0.8247
2950	0.8181
2959	0.813
2968	0.8139
2977	0.8226
2986	0.8305
2995	0.8322
3004	0.8346
3013	0.8365
3022	0.8384
3031	0.8407
3040	0.8474
3049	0.8387
3058	0.8265
3067	0.7958
3076	0.7528
3085	0.7022
3094	0.6257
3103	0.7167
3112	0.7473
3121	0.7578
3130	0.8052
3139	0.8262
3148	0.8528
3157	0.8557
3166	0.8573
3175	0.858
3184	0.8584
3193	0.8586
3202	0.8586
3211	0.8584
3220	0.8584
3229	0.8584
3238	0.8584
3247	0.8587
3256	0.8592
3265	0.8595
3274	0.86
3283	0.8603
3292	0.8605
3301	0.8607
3310	0.8609
3319	0.8611
3328	0.8612
3337	0.8613
3346	0.8614
3355	0.8615
3364	0.8616
3373	0.8616
3382	0.8617
3391	0.8618
3400	0.8619
3409	0.8617
3418	0.8614
3427	0.861
3436	0.8606
3445	0.8602
3454	0.8601
3463	0.8601
3472	0.8601
3481	0.8601
3490	0.8602
3499	0.8606
3508	0.861
3517	0.8614
3526	0.8616
3535	0.8613
3544	0.8611
3553	0.8609
3562	0.8612
3571	0.8614
3580	0.8617
3589	0.8615
3598	0.8612
3607	0.8607
3616	0.8603
3625	0.8598
3634	0.8595
3643	0.8591
3652	0.8582
3661	0.857
3670	0.8556
3679	0.854
3688	0.8524
3697	0.8508
3706	0.8501
3715	0.8499
3724	0.8502
3733	0.851
3742	0.8533
3751	0.8594
3760	0.861
3769	0.8614
3778	0.8627
3787	0.8647
3796	0.8683
