Infrared Spectrum: Methane, bromotrichloro-
Formula: C Br Cl 3
CAS: 75-62-7
State: gas
Origin: Sadtler Research Labs Under US-EPA Contract
1/CM	ABSORBANCE
450	0.0110161
462	0.0028007
474	0.0160573
486	0.0110161
498	0.0128832
510	0.0108294
522	0.00373426
534	0.00840209
546	0.00877551
558	0.0042944
570	0.00914894
582	0.00728181
594	0.00616153
606	0.0106426
618	0.0100825
630	0.00840209
642	0.0134433
654	0.0278202
666	0.0405167
678	0.0242727
690	0.0280069
702	0.0722579
714	0.262892
726	0.767204
738	0.932445
750	0.0795397
762	0.18746
774	0.835167
786	1.86713
798	0.215093
810	0.0192314
822	0.0147503
834	0.0123231
846	0.0108294
858	0.00970908
870	0.0085888
882	0.00952236
894	0.0104559
906	0.0128832
918	0.0130699
930	0.00952236
942	0.00877551
954	0.0110161
966	0.0143769
978	0.0145636
990	0.00952236
1002	0.0085888
1014	0.00877551
1026	0.00802866
1038	0.00784195
1050	0.00784195
1062	0.00784195
1074	0.00802866
1086	0.00784195
1098	0.00765523
1110	0.00709509
1122	0.00765523
1134	0.00821537
1146	0.0102692
1158	0.0100825
1170	0.00784195
1182	0.00802866
1194	0.0110161
1206	0.0121363
1218	0.00877551
1230	0.0085888
1242	0.00952236
1254	0.00877551
1266	0.00746852
1278	0.00728181
1290	0.00784195
1302	0.00728181
1314	0.00672167
1326	0.00672167
1338	0.00672167
1350	0.00653496
1362	0.00672167
1374	0.00634824
1386	0.00634824
1398	0.00597482
1410	0.00616153
1422	0.00616153
1434	0.00690838
1446	0.00765523
1458	0.00653496
1470	0.00672167
1482	0.00802866
1494	0.0113895
1506	0.0138168
1518	0.0130699
1530	0.00728181
1542	0.0085888
1554	0.0108294
1566	0.0119496
1578	0.00970908
1590	0.00821537
1602	0.00709509
1614	0.00541468
1626	0.00504125
1638	0.00448111
1650	0.00485454
1662	0.00448111
1674	0.00466782
1686	0.00410769
1698	0.00392097
1710	0.00485454
1722	0.00466782
1734	0.00448111
1746	0.0042944
1758	0.0042944
1770	0.0042944
1782	0.00410769
1794	0.0042944
1806	0.0042944
1818	0.0042944
1830	0.00448111
1842	0.00410769
1854	0.0042944
1866	0.00392097
1878	0.00354755
1890	0.00373426
1902	0.00373426
1914	0.00336083
1926	0.00354755
1938	0.00354755
1950	0.00336083
1962	0.00298741
1974	0.00317412
1986	0.00298741
1998	0.00298741
2010	0.00298741
2022	0.00298741
2034	0.00298741
2046	0.0028007
2058	0.00261398
2070	0.0028007
2082	0.00298741
2094	0.00317412
2106	0.00261398
2118	0.0028007
2130	0.0028007
2142	0.00242727
2154	0.00205384
2166	0.00224056
2178	0.00242727
2190	0.00242727
2202	0.00224056
2214	0.00242727
2226	0.00224056
2238	0.00242727
2250	0.00205384
2262	0.00224056
2274	0.00242727
2286	0.00186713
2298	0.0014937
2310	0.000933565
2322	0.000933565
2334	0.000560139
2346	0.000746852
2358	0.00112028
2370	0.00112028
2382	0.00130699
2394	0.00112028
2406	0.00130699
2418	0.00112028
2430	0.000933565
2442	0.000746852
2454	0.000933565
2466	0.000933565
2478	0.000933565
2490	0.000933565
2502	0.000746852
2514	0.000933565
2526	0.000746852
2538	0.000746852
2550	0.000746852
2562	0.000560139
2574	0.000560139
2586	0.000186713
2598	0
2610	0
2622	0.000373426
2634	0.000373426
2646	0.000560139
2658	0.000746852
2670	0.000373426
2682	0.000933565
2694	0.000560139
2706	0.000746852
2718	0.000560139
2730	0.000560139
2742	0.000186713
2754	0.000373426
2766	0.000186713
2778	0.000186713
2790	0.000560139
2802	0.000560139
2814	0.000560139
2826	0.000373426
2838	0.000560139
2850	0.000746852
2862	0.000933565
2874	0.00112028
2886	0.000560139
2898	0.000746852
2910	0.000746852
2922	0.000933565
2934	0.00130699
2946	0.00130699
2958	0.00112028
2970	0.00130699
2982	0.000933565
2994	0.000933565
3006	0.000560139
3018	0.000746852
3030	0.000746852
3042	0.000933565
3054	0.00112028
3066	0.000746852
3078	0.000746852
3090	0.000746852
3102	0.000560139
3114	0.000560139
3126	0.000373426
3138	0.000746852
3150	0.000746852
3162	0.000560139
3174	0.000933565
3186	0.000933565
3198	0.000560139
3210	0.000560139
3222	0.000933565
3234	0.000746852
3246	0.000746852
3258	0.000746852
3270	0.000746852
3282	0.00112028
3294	0.00112028
3306	0.000933565
3318	0.00112028
3330	0.00112028
3342	0.00112028
3354	0.00112028
3366	0.0014937
3378	0.000746852
3390	0.00130699
3402	0.000560139
3414	0.000933565
3426	0.00130699
3438	0.000933565
3450	0.00130699
3462	0.00112028
3474	0.0014937
3486	0.00112028
3498	0.000933565
3510	0.00130699
3522	0.00130699
3534	0.00130699
3546	0.000560139
3558	0.0014937
3570	0.000746852
3582	0.00130699
3594	0.00130699
3606	0.000933565
3618	0.00205384
3630	0.00242727
3642	0.000933565
3654	0.000933565
3666	0.000933565
3678	0.0014937
3690	0.000560139
3702	0.00168042
3714	0.00130699
3726	0.000933565
3738	0.000560139
3750	0.00130699
3762	0.00130699
3774	0.00112028
3786	0.000933565
3798	0.000186713
3810	0.000560139
3822	0.00186713
3834	0.00186713
3846	0.00168042
3858	0.000746852
3870	0.00112028
3882	0.00186713
3894	0.00205384
3906	0.00186713
3918	0.00168042
3930	0.00168042
3942	0.0014937
3954	0.00186713
3966	0.000186713
