Infrared Spectrum: Methane, bromotrichloro-
Formula: C Br Cl3
CAS: 75-62-7
State: GAS (30 mmHg, N2 ADDED, TOTAL PRESSURE 600 mmHg)
Class: COBLENTZ
Instrument: DOW KBr FOREPRISM-GRATING
Instrument parameters: GRATING CHANGED AT 5.0, 7.5, 15.0 MICRON
Sampling: TRANSMISSION
Path length: 5 CM
Resolution: 2
Origin: DOW CHEMICAL COMPANY
1/CM	TRANSMITTANCE
454	0.8408
463	0.8383
472	0.8355
481	0.8313
490	0.832
499	0.8328
508	0.8354
517	0.8371
526	0.8369
535	0.8375
544	0.8392
553	0.8428
562	0.8455
571	0.8467
580	0.8471
589	0.8486
598	0.8504
607	0.8525
616	0.8555
625	0.8573
634	0.8561
643	0.8433
652	0.8228
661	0.7821
670	0.7718
679	0.8213
688	0.8174
697	0.7873
706	0.7173
715	0.4711
724	0.0573
733	0.0014
742	0.4292
751	0.7706
760	0.6953
769	0.5056
778	0.0231
787	0.0001
796	0.2093
805	0.8223
814	0.8419
823	0.8431
832	0.8379
841	0.8417
850	0.8457
859	0.8498
868	0.852
877	0.8535
886	0.8528
895	0.8496
904	0.8439
913	0.8377
922	0.8455
931	0.8581
940	0.8583
949	0.8547
958	0.8498
967	0.8492
976	0.8408
985	0.8499
994	0.8569
1003	0.8594
1012	0.8554
1021	0.8547
1030	0.8529
1039	0.8516
1048	0.8502
1057	0.8494
1066	0.8486
1075	0.8489
1084	0.8532
1093	0.8586
1102	0.8621
1111	0.8653
1120	0.8683
1129	0.867
1138	0.8596
1147	0.8529
1156	0.8539
1165	0.8616
1174	0.8585
1183	0.8567
1192	0.8556
1201	0.8468
1210	0.8457
1219	0.8551
1228	0.8612
1237	0.86
1246	0.8537
1255	0.852
1264	0.8526
1273	0.851
1282	0.8507
1291	0.8503
1300	0.85
1309	0.8496
1318	0.8493
1327	0.8489
1336	0.8485
1345	0.8482
1354	0.8512
1363	0.8532
1372	0.8404
1381	0.8269
1390	0.8327
1399	0.8385
1408	0.8405
1417	0.842
1426	0.8405
1435	0.8387
1444	0.8337
1453	0.8334
1462	0.8346
1471	0.841
1480	0.8371
1489	0.828
1498	0.8266
1507	0.8169
1516	0.8065
1525	0.8363
1534	0.8423
1543	0.8385
1552	0.8336
1561	0.8288
1570	0.8292
1579	0.835
1588	0.8414
1597	0.8441
1606	0.845
1615	0.8461
1624	0.8494
1633	0.8497
1642	0.8519
1651	0.8528
1660	0.8511
1669	0.8514
1678	0.852
1687	0.853
1696	0.8555
1705	0.8562
1714	0.8549
1723	0.8537
1732	0.8552
1741	0.8515
1750	0.852
1759	0.8529
1768	0.8535
1777	0.8534
1786	0.8526
1795	0.8517
1804	0.8508
1813	0.8501
1822	0.85
1831	0.85
1840	0.8499
1849	0.85
1858	0.8501
1867	0.8495
1876	0.8484
1885	0.8473
1894	0.8472
1903	0.8473
1912	0.8473
1921	0.8473
1930	0.8472
1939	0.8472
1948	0.8477
1957	0.8483
1966	0.8491
1975	0.8501
1984	0.8511
1993	0.8516
2002	0.8518
2011	0.8519
2020	0.852
2029	0.8519
2038	0.8519
2047	0.8518
2056	0.8518
2065	0.8518
2074	0.8521
2083	0.8523
2092	0.8525
2101	0.8527
2110	0.8529
2119	0.8531
2128	0.8535
2137	0.8538
2146	0.8542
2155	0.8545
2164	0.8549
2173	0.8552
2182	0.8564
2191	0.8578
2200	0.8587
2209	0.8592
2218	0.8599
2227	0.8605
2236	0.8606
2245	0.8605
2254	0.8602
2263	0.8598
2272	0.8595
2281	0.8592
2290	0.859
2299	0.8604
2308	0.8652
2317	0.8705
2326	0.8751
2335	0.8756
2344	0.8752
2353	0.8877
2362	0.8851
2371	0.8748
2380	0.8615
2389	0.861
2398	0.8607
2407	0.8598
2416	0.8592
2425	0.8586
2434	0.8585
2443	0.8583
2452	0.8584
2461	0.8586
2470	0.8589
2479	0.8591
2488	0.8593
2497	0.8595
2506	0.8598
2515	0.8599
2524	0.8602
2533	0.8605
2542	0.8609
2551	0.8612
2560	0.8615
2569	0.8618
2578	0.8622
2587	0.8625
2596	0.863
2605	0.8633
2614	0.8638
2623	0.8642
2632	0.8646
2641	0.8646
2650	0.8641
2659	0.8645
2668	0.8649
2677	0.8653
2686	0.8652
2695	0.8648
2704	0.8642
2713	0.8635
2722	0.8628
2731	0.8622
2740	0.8623
2749	0.8626
2758	0.8629
2767	0.8637
2776	0.8635
2785	0.8631
2794	0.8638
2803	0.8614
2812	0.8626
2821	0.8609
2830	0.8614
2839	0.8659
2848	0.8691
2857	0.8658
2866	0.8592
2875	0.8578
2884	0.8624
2893	0.8678
2902	0.8706
2911	0.8726
2920	0.8648
2929	0.8526
2938	0.8494
2947	0.8502
2956	0.8517
2965	0.8516
2974	0.8503
2983	0.8489
2992	0.8476
3001	0.8456
3010	0.8418
3019	0.8366
3028	0.8305
3037	0.8306
3046	0.8335
3055	0.841
3064	0.8418
3073	0.8416
3082	0.8424
3091	0.8461
3100	0.8518
3109	0.855
3118	0.8559
3127	0.8566
3136	0.8574
3145	0.8587
3154	0.8589
3163	0.8576
3172	0.8564
3181	0.8554
3190	0.8547
3199	0.8545
3208	0.8547
3217	0.8549
3226	0.8546
3235	0.8541
3244	0.8536
3253	0.8531
3262	0.8525
3271	0.8519
3280	0.8513
3289	0.8506
3298	0.8506
3307	0.8507
3316	0.8509
3325	0.851
3334	0.8513
3343	0.8516
3352	0.852
3361	0.8523
3370	0.853
3379	0.8537
3388	0.8546
3397	0.8556
3406	0.8566
3415	0.8582
3424	0.8578
3433	0.8521
3442	0.8577
3451	0.8563
3460	0.8604
3469	0.862
3478	0.8631
3487	0.8642
3496	0.8653
3505	0.8665
3514	0.8674
3523	0.8682
3532	0.8691
3541	0.8698
3550	0.8701
3559	0.8703
3568	0.8705
3577	0.8707
3586	0.8704
3595	0.8698
3604	0.8694
3613	0.8689
3622	0.8683
3631	0.8671
3640	0.866
3649	0.8648
3658	0.8637
3667	0.8627
3676	0.8617
3685	0.8613
3694	0.8694
3703	0.8706
3712	0.8709
3721	0.8709
3730	0.8711
3739	0.8713
3748	0.871
3757	0.8703
3766	0.8696
3775	0.869
3784	0.8685
