Infrared Spectrum: 1,3-Diazine
Formula: C 4 H 4 N 2
CAS: 289-95-2
State: gas
Origin: Sadtler Research Labs Under US-EPA Contract
1/CM	ABSORBANCE
450	0.0320149
462	0.00417585
474	0.00366969
486	0.00253082
498	0.00354315
510	0.00164503
522	0.00442894
534	0.00366969
546	0.00253082
558	0.00303698
570	0.0027839
582	0.00658013
594	0.0287248
606	0.106927
618	0.117936
630	0.147041
642	0.0531472
654	0.0113887
666	0.0198669
678	0.0697241
690	0.197024
702	0.278264
714	0.237897
726	0.165009
738	0.177917
750	0.0880725
762	0.0256878
774	0.026194
786	0.0383419
798	0.0769369
810	0.0384685
822	0.0420116
834	0.0206262
846	0.00759246
858	0.00430239
870	0.00392277
882	0.00341661
894	0.00430239
906	0.00329007
918	0.00417585
930	0.0049351
942	0.00417585
954	0.0055678
966	0.0141726
978	0.0356846
990	0.032521
1002	0.0368234
1014	0.0167034
1026	0.0140461
1038	0.0165769
1050	0.0347988
1062	0.0492244
1074	0.0398604
1086	0.0370765
1098	0.0102498
1110	0.0111356
1122	0.0329007
1134	0.0507429
1146	0.069471
1158	0.0555515
1170	0.0440363
1182	0.0126541
1194	0.0208793
1206	0.0860479
1218	0.0990816
1230	0.106927
1242	0.0636501
1254	0.0125276
1266	0.00683321
1278	0.007719
1290	0.007719
1302	0.00835171
1314	0.00721284
1326	0.0112621
1338	0.00835171
1350	0.0196139
1362	0.0312556
1374	0.114267
1386	0.496167
1398	0.57032
1410	0.625366
1422	0.284464
1434	0.0397339
1446	0.0516287
1458	0.0684587
1470	0.0692179
1482	0.0765573
1494	0.0161972
1506	0.00392277
1518	0.00961712
1530	0.0388481
1542	0.170324
1554	0.772406
1566	1.16671
1578	1.26376
1590	0.263585
1602	0.0707364
1614	0.03695
1626	0.0187281
1638	0.00809862
1650	0.00531472
1662	0.0167034
1674	0.0140461
1686	0.00999674
1698	0.00531472
1710	0.0102498
1722	0.00835171
1734	0.00670667
1746	0.0182219
1758	0.021512
1770	0.0217651
1782	0.0160707
1794	0.0103764
1806	0.00999674
1818	0.0113887
1830	0.00809862
1842	0.00721284
1854	0.0070863
1866	0.00379623
1878	0.00670667
1890	0.0055678
1902	0.00835171
1914	0.00936403
1926	0.0145522
1938	0.0285983
1950	0.0366969
1962	0.0394808
1974	0.0321414
1986	0.0183484
1998	0.0120214
2010	0.00695976
2022	0.00594743
2034	0.00607397
2046	0.0055678
2058	0.00531472
2070	0.00607397
2082	0.00607397
2094	0.0070863
2106	0.00733938
2118	0.00923749
2130	0.0101233
2142	0.00873133
2154	0.00683321
2166	0.0055678
2178	0.00620051
2190	0.00911095
2202	0.0115152
2214	0.0115152
2226	0.0102498
2238	0.00733938
2250	0.00531472
2262	0.0055678
2274	0.00835171
2286	0.0111356
2298	0.0127806
2310	0.0103764
2322	0.00759246
2334	0.00582089
2346	0.0049351
2358	0.00645359
2370	0.00518818
2382	0.00721284
2394	0.00670667
2406	0.00607397
2418	0.00366969
2430	0.00329007
2442	0.00341661
2454	0.00329007
2466	0.00265736
2478	0.00291044
2490	0.00316353
2502	0.00329007
2514	0.00506164
2526	0.00797208
2538	0.010756
2550	0.0132868
2562	0.0103764
2574	0.00569434
2586	0.00582089
2598	0.00733938
2610	0.00885787
2622	0.00847825
2634	0.00620051
2646	0.00392277
2658	0.00240428
2670	0.00253082
2682	0.00253082
2694	0.00341661
2706	0.0027839
2718	0.00227774
2730	0.00101233
2742	0.000885787
2754	0.000379623
2766	0.000506164
2778	0.000379623
2790	0.00101233
2802	0.00240428
2814	0.0027839
2826	0.00265736
2838	0.00265736
2850	0.0027839
2862	0.00316353
2874	0.00341661
2886	0.00303698
2898	0.00759246
2910	0.0182219
2922	0.0232835
2934	0.0217651
2946	0.0142991
2958	0.0167034
2970	0.0161972
2982	0.0212589
2994	0.0318883
3006	0.0560577
3018	0.0931342
3030	0.217271
3042	0.308887
3054	0.338497
3066	0.282946
3078	0.178296
3090	0.112368
3102	0.110217
3114	0.0445424
3126	0.0326476
3138	0.0382154
3150	0.0250551
3162	0.00923749
3174	0.00265736
3186	0.00164503
3198	0.00139195
3210	0.00126541
3222	0.000885787
3234	0.000885787
3246	0.00139195
3258	0.000759246
3270	0.00101233
3282	0.000885787
3294	0.00113887
3306	0.00113887
3318	0.000885787
3330	0.00126541
3342	0.00164503
3354	0.00101233
3366	0.00177157
3378	0.00126541
3390	0.00202466
3402	0.00202466
3414	0.00164503
3426	0.00177157
3438	0.00113887
3450	0.00227774
3462	0.0021512
3474	0.00164503
3486	0.000885787
3498	0.00164503
3510	0.00164503
3522	0.00177157
3534	0.00177157
3546	0.00164503
3558	0.00101233
3570	0.00113887
3582	0.00126541
3594	0.000885787
3606	0.00113887
3618	0.00101233
3630	0.00126541
3642	0.000253082
3654	0.00113887
3666	0.00265736
3678	0.00253082
3690	0.00227774
3702	0.00240428
3714	0.000759246
3726	0.00164503
3738	0.0021512
3750	0.00468202
3762	0.00329007
3774	0.00291044
3786	0.00240428
3798	0.000253082
3810	0.00202466
3822	0.00202466
3834	0.00202466
3846	0.00189812
3858	0.000885787
3870	0.000253082
3882	0.000379623
3894	0.00126541
3906	0.00177157
3918	0.00113887
3930	0.00113887
3942	0.00101233
3954	0.00177157
3966	0.00126541
