Infrared Spectrum: PYRIMIDINE
Formula: C4 H4 N2
CAS: 289-95-2
State: SOLUTION (10% IN CCl4 FOR 3800-1370, 10% IN CS2 FOR 1370-450 CM^-^1)
Class: COBLENTZ III
Instrument: DOW KBr FOREPRISM-GRATING
Instrument parameters: BLAZED AT 3.5, 12.0, 20.0 MICRON AND CHANGED AT 5.0, 7.5, 14.9 MICRON
Sampling: TRANSMISSION
Path length: 0.010 CM, 0.010 CM
Resolution: 2
Origin: DOW CHEMICAL COMPANY
1/CM	TRANSMITTANCE
443.248	0.761
451.979	0.764
460.71	0.777
469.441	0.787
478.172	0.789
486.903	0.791
495.634	0.8
504.366	0.81
513.097	0.813
521.828	0.817
530.559	0.815
539.29	0.808
548.021	0.808
556.752	0.808
565.483	0.826
574.214	0.829
582.945	0.83
591.676	0.829
600.407	0.821
609.139	0.781
617.87	0.49
626.601	0.455
635.332	0.761
644.063	0.779
652.794	0.766
661.525	0.804
670.256	0.746
678.987	0.513
687.718	0.735
696.449	0.649
705.18	0.355
713.912	0.043
722.643	0.219
731.374	0.649
740.105	0.788
748.836	0.853
757.567	0.869
766.298	0.875
775.029	0.863
783.76	0.846
792.491	0.734
801.222	0.417
809.953	0.685
818.685	0.818
827.416	0.789
836.147	0.785
844.878	0.808
853.609	0.761
862.34	0.791
871.071	0.818
879.802	0.842
888.533	0.891
897.264	0.911
905.995	0.895
914.726	0.902
923.458	0.89
932.189	0.864
940.92	0.898
949.651	0.89
958.382	0.886
967.113	0.883
975.844	0.85
984.575	0.566
993.306	0.719
1002.04	0.859
1010.77	0.861
1019.5	0.818
1028.23	0.7199
1036.96	0.692
1045.69	0.714
1054.42	0.741
1063.15	0.598
1071.89	0.5181
1080.62	0.789
1089.35	0.808
1098.08	0.848
1106.81	0.861
1115.54	0.871
1124.27	0.865
1133	0.773
1141.73	0.794
1150.47	0.691
1159.2	0.548
1167.93	0.834
1176.66	0.868
1185.39	0.878
1194.12	0.867
1202.85	0.827
1211.58	0.728
1220.31	0.21
1229.05	0.746
1237.78	0.853
1246.51	0.869
1255.24	0.882
1263.97	0.88
1272.7	0.869
1281.43	0.855
1290.16	0.849
1298.89	0.7519
1307.63	0.586
1316.36	0.692
1325.09	0.722
1333.82	0.802
1342.55	0.882
1351.28	0.857
1360.01	0.823
1368.74	0.791
1377.47	0.676
1386.2	0.479
1394.94	0.124
1403.67	0.079
1412.4	0.566
1421.13	0.768
1429.86	0.661
1438.59	0.788
1447.32	0.813
1456.05	0.746
1464.78	0.1161
1473.52	0.669
1482.25	0.673
1490.98	0.81
1499.71	0.792
1508.44	0.739
1517.17	0.692
1525.9	0.65
1534.63	0.566
1543.36	0.43
1552.1	0.281
1560.83	0.006
1569.56	0.004
1578.29	0.1151
1587.02	0.216
1595.75	0.575
1604.48	0.696
1613.21	0.596
1621.94	0.798
1630.68	0.852
1639.41	0.879
1648.14	0.888
1656.87	0.888
1665.6	0.871
1674.33	0.869
1683.06	0.917
1691.79	0.914
1700.52	0.944
1709.25	0.963
1717.99	0.97
1726.72	0.97
1735.45	0.968
1744.18	0.951
1752.91	0.948
1761.64	0.925
1770.37	0.943
1779.1	0.933
1787.83	0.932
1796.57	0.959
1805.3	0.97
1814.03	0.96
1822.76	0.956
1831.49	0.945
1840.22	0.959
1848.95	0.966
1857.68	0.963
1866.41	0.971
1875.15	0.975
1883.88	0.975
1892.61	0.97
1901.34	0.962
1910.07	0.955
1918.8	0.966
1927.53	0.96
1936.26	0.943
1944.99	0.899
1953.73	0.804
1962.46	0.884
1971.19	0.913
1979.92	0.872
1988.65	0.933
1997.38	0.929
2006.11	0.955
2014.84	0.9632
2023.57	0.966
2032.3	0.9677
2041.04	0.9708
2049.77	0.9718
2058.5	0.9738
2067.23	0.9749
2075.96	0.975
2084.69	0.975
2093.42	0.974
2102.15	0.972
2110.88	0.976
2119.62	0.978
2128.35	0.971
2137.08	0.962
2145.81	0.9475
2154.54	0.9712
2163.27	0.9786
2172	0.982
2180.73	0.982
2189.46	0.981
2198.2	0.9782
2206.93	0.976
2215.66	0.9493
2224.39	0.959
2233.12	0.9569
2241.85	0.9717
2250.58	0.978
2259.31	0.9775
2268.04	0.9757
2276.78	0.9713
2285.51	0.9632
2294.24	0.9421
2302.97	0.9461
2311.7	0.9554
2320.43	0.9536
2329.16	0.978
2337.89	0.981
2346.62	0.983
2355.35	0.983
2364.09	0.982
2372.82	0.978
2381.55	0.975
2390.28	0.9715
2399.01	0.9571
2407.74	0.9868
2416.47	0.987
2425.2	0.989
2433.93	0.989
2442.67	0.989
2451.4	0.989
2460.13	0.989
2468.86	0.99
2477.59	0.99
2486.32	0.99
2495.05	0.989
2503.78	0.989
2512.51	0.987
2521.25	0.985
2529.98	0.9754
2538.71	0.961
2547.44	0.9655
2556.17	0.9423
2564.9	0.9796
2573.63	0.983
2582.36	0.983
2591.09	0.9815
2599.83	0.9648
2608.56	0.962
2617.29	0.946
2626.02	0.9654
2634.75	0.9672
2643.48	0.9807
2652.21	0.983
2660.94	0.985
2669.67	0.983
2678.41	0.9819
2687.14	0.979
2695.87	0.9732
2704.6	0.978
2713.33	0.976
2722.06	0.976
2730.79	0.976
2739.52	0.975
2748.25	0.975
2756.98	0.9744
2765.72	0.972
2774.45	0.9703
2783.18	0.9662
2791.91	0.963
2800.64	0.96
2809.37	0.9531
2818.1	0.948
2826.83	0.9521
2835.56	0.9516
2844.3	0.9394
2853.03	0.9232
2861.76	0.9097
2870.49	0.905
2879.22	0.905
2887.95	0.8965
2896.68	0.8889
2905.41	0.8788
2914.14	0.8157
2922.88	0.831
2931.61	0.8599
2940.34	0.8642
2949.07	0.8401
2957.8	0.8153
2966.53	0.7909
2975.26	0.7831
2983.99	0.7894
2992.72	0.799
3001.46	0.7603
3010.19	0.6821
3018.92	0.7021
3027.65	0.6494
3036.38	0.4027
3045.11	0.3987
3053.84	0.5722
3062.57	0.7236
3071.3	0.8056
3080.03	0.7582
3088.77	0.7714
3097.5	0.8689
3106.23	0.89
3114.96	0.8799
3123.69	0.8509
3132.42	0.7791
3141.15	0.8539
3149.88	0.901
3158.61	0.901
3167.35	0.899
3176.08	0.8976
3184.81	0.895
3193.54	0.89
3202.27	0.8864
3211	0.882
3219.73	0.88
3228.46	0.8782
3237.19	0.875
3245.93	0.871
3254.66	0.867
3263.39	0.861
3272.12	0.856
3280.85	0.8517
3289.58	0.8458
3298.31	0.8395
3307.04	0.8337
3315.77	0.8283
3324.51	0.8186
3333.24	0.8105
3341.97	0.7955
3350.7	0.7852
3359.43	0.776
3368.16	0.7625
3376.89	0.7507
3385.62	0.7395
3394.35	0.7301
3403.08	0.727
3411.82	0.724
3420.55	0.724
3429.28	0.724
3438.01	0.7272
3446.74	0.7315
3455.47	0.7416
3464.2	0.7541
3472.93	0.7663
3481.66	0.7785
3490.4	0.7901
3499.13	0.8012
3507.86	0.8143
3516.59	0.8257
3525.32	0.8364
3534.05	0.8448
3542.78	0.8557
3551.51	0.8629
3560.24	0.873
3568.98	0.8832
3577.71	0.8923
3586.44	0.8994
3595.17	0.905
3603.9	0.909
3612.63	0.9118
3621.36	0.917
3630.09	0.9215
3638.82	0.9366
3647.56	0.936
3656.29	0.9283
3665.02	0.9015
3673.75	0.884
3682.48	0.9328
3691.21	0.9526
3699.94	0.9619
3708.67	0.966
3717.4	0.966
3726.13	0.968
3734.87	0.972
3743.6	0.9614
3752.33	0.9623
3761.06	0.9664
3769.79	0.968
3778.52	0.971
