Infrared Spectrum: Pyrimidine
Formula: C4 H4 N2
CAS: 289-95-2
State: LIQUID (NEAT)
Class: COBLENTZ III
Instrument: PERKIN-ELMER 521 (GRATING)
Instrument parameters: FILTERS AT 3150, 2500, 2000, 1150, 700, 410. GRATING CHANGES: 2000, 630
Path length: 0.0015 CM
Resolution: 2
Origin: SOUTHERN RESEARCH INSTITUTE
1/CM	TRANSMITTANCE
241.3	0.594
251.04	0.6426
260.78	0.6956
270.52	0.7383
280.26	0.7829
290.001	0.8194
299.741	0.8359
309.481	0.8373
319.221	0.83
328.961	0.7951
338.701	0.6943
348.441	0.2878
358.181	0.7535
367.921	0.8388
377.662	0.8744
387.402	0.8754
397.142	0.8733
406.882	0.8817
416.622	0.8843
426.362	0.8889
436.102	0.8948
445.842	0.8945
455.582	0.8938
465.323	0.8936
475.063	0.8948
484.803	0.8986
494.543	0.9035
504.283	0.907
514.023	0.9101
523.763	0.912
533.503	0.9132
543.243	0.912
552.983	0.9089
562.724	0.9035
572.464	0.8968
582.204	0.8878
591.944	0.8755
601.684	0.854
611.424	0.8148
621.164	0.6964
630.904	0.0231
640.644	0.7288
650.385	0.8124
660.125	0.8247
669.865	0.8233
679.605	0.6803
689.345	0.4157
699.085	0.5714
708.825	0.283
718.565	0.0921
728.305	0.0189
738.046	0.4164
747.786	0.6536
757.526	0.7187
767.266	0.7735
777.006	0.7854
786.746	0.765
796.486	0.6359
806.226	0.3994
815.966	0.1758
825.707	0.5473
835.447	0.7435
845.187	0.8279
854.927	0.8603
864.667	0.8767
874.407	0.8837
884.147	0.8871
893.887	0.8877
903.627	0.8877
913.368	0.8855
923.108	0.8806
932.848	0.8675
942.588	0.8632
952.328	0.8449
962.068	0.8195
971.808	0.815
981.548	0.7492
991.288	0.2089
1001.03	0.6387
1010.77	0.7759
1020.51	0.7602
1030.25	0.724
1039.99	0.7386
1049.73	0.7181
1059.47	0.6378
1069.21	0.3079
1078.95	0.433
1088.69	0.7678
1098.43	0.8145
1108.17	0.8216
1117.91	0.8161
1127.65	0.7878
1137.39	0.5558
1147.13	0.6609
1156.87	0.2706
1166.61	0.7018
1176.35	0.8179
1186.09	0.8232
1195.83	0.8084
1205.57	0.7022
1215.31	0.5771
1225.05	0.102
1234.79	0.6235
1244.53	0.8056
1254.27	0.8595
1264.01	0.8705
1273.75	0.8703
1283.49	0.8675
1293.23	0.8466
1302.97	0.767
1312.71	0.7567
1322.45	0.7405
1332.19	0.7375
1341.93	0.7276
1351.67	0.6434
1361.41	0.5709
1371.15	0.4944
1380.89	0.2787
1390.63	0.0195
1400.37	0.0203
1410.11	0.2178
1419.85	0.5094
1429.59	0.5844
1439.33	0.6706
1449.07	0.6093
1458.81	0.3625
1468.55	0.0506
1478.29	0.6221
1488.03	0.7435
1497.77	0.7745
1507.51	0.7715
1517.25	0.7535
1526.99	0.7119
1536.73	0.6491
1546.47	0.4251
1556.21	0.0767
1565.95	0.0097
1575.69	0.0228
1585.44	0.3826
1595.18	0.5833
1604.92	0.6242
1614.66	0.4081
1624.4	0.7241
1634.14	0.8127
1643.88	0.8266
1653.62	0.8436
1663.36	0.8023
1673.1	0.785
1682.84	0.8138
1692.58	0.8406
1702.32	0.8755
1712.06	0.8957
1721.8	0.9048
1731.54	0.8966
1741.28	0.8757
1751.02	0.8699
1760.76	0.8327
1770.5	0.7944
1780.24	0.7921
1789.98	0.8301
1799.72	0.8402
1809.46	0.859
1819.2	0.8674
1828.94	0.8516
1838.68	0.8747
1848.42	0.9045
1858.16	0.9054
1867.9	0.9142
1877.64	0.9161
1887.38	0.9095
1897.12	0.8956
1906.86	0.8764
1916.6	0.8873
1926.34	0.8844
1936.08	0.8611
1945.82	0.8127
1955.56	0.7289
1965.3	0.7049
1975.04	0.7296
1984.78	0.7572
1994.52	0.7902
2004.26	0.8184
2014	0.8331
2023.74	0.8549
2033.48	0.8694
2043.22	0.8766
2052.96	0.8849
2062.7	0.8874
2072.44	0.889
2082.18	0.8902
2091.92	0.8906
2101.66	0.8942
2111.4	0.8944
2121.14	0.8792
2130.88	0.8619
2140.62	0.8698
2150.36	0.8936
2160.1	0.9033
2169.84	0.9019
2179.58	0.8967
2189.32	0.8887
2199.06	0.8771
2208.8	0.8482
2218.54	0.8555
2228.28	0.8686
2238.02	0.9051
2247.76	0.911
2257.5	0.9102
2267.24	0.9053
2276.98	0.8965
2286.72	0.8723
2296.46	0.8587
2306.2	0.8436
2315.94	0.8036
2325.68	0.8604
2335.42	0.8997
2345.16	0.8953
2354.9	0.8912
2364.64	0.8873
2374.38	0.875
2384.12	0.8556
2393.86	0.8854
2403.6	0.9103
2413.34	0.9097
2423.08	0.9105
2432.82	0.9113
2442.56	0.9121
2452.3	0.9122
2462.04	0.9117
2471.78	0.9111
2481.53	0.9173
2491.27	0.9122
2501.01	0.902
2510.75	0.8898
2520.49	0.8845
2530.23	0.8617
2539.97	0.8587
2549.71	0.7993
2559.45	0.8618
2569.19	0.903
2578.93	0.9028
2588.67	0.8911
2598.41	0.8631
2608.15	0.8447
2617.89	0.838
2627.63	0.8648
2637.37	0.8851
2647.11	0.9008
2656.85	0.907
2666.59	0.9062
2676.33	0.9012
2686.07	0.8952
2695.81	0.8918
2705.55	0.8966
2715.29	0.8919
2725.03	0.8992
2734.77	0.9099
2744.51	0.9085
2754.25	0.9068
2763.99	0.9052
2773.73	0.9032
2783.47	0.9015
2793.21	0.9006
2802.95	0.8998
2812.69	0.8946
2822.43	0.8924
2832.17	0.8917
2841.91	0.89
2851.65	0.8859
2861.39	0.8812
2871.13	0.8756
2880.87	0.8685
2890.61	0.8579
2900.35	0.8401
2910.09	0.797
2919.83	0.6724
2929.57	0.753
2939.31	0.7622
2949.05	0.7429
2958.79	0.7059
2968.53	0.7052
2978.27	0.6876
2988.01	0.646
2997.75	0.5584
3007.49	0.5028
3017.23	0.4257
3026.97	0.3355
3036.71	0.1655
3046.45	0.2198
3056.19	0.3136
3065.93	0.518
3075.67	0.5566
3085.41	0.5649
3095.15	0.653
3104.89	0.6825
3114.63	0.6775
3124.37	0.6242
3134.11	0.6405
3143.85	0.7323
3153.59	0.7911
3163.33	0.8097
3173.07	0.8251
3182.81	0.8396
3192.55	0.8539
3202.29	0.8662
3212.03	0.8747
3221.77	0.8812
3231.51	0.8858
3241.25	0.89
3250.99	0.8936
3260.73	0.8963
3270.47	0.8982
3280.21	0.8999
3289.95	0.9009
3299.69	0.9007
3309.43	0.8999
3319.17	0.8986
3328.91	0.8966
3338.65	0.8941
3348.39	0.891
3358.13	0.8879
3367.87	0.8852
3377.62	0.8811
3387.36	0.8759
3397.1	0.8725
3406.84	0.8712
3416.58	0.8715
3426.32	0.8738
3436.06	0.8764
3445.8	0.8792
3455.54	0.8835
3465.28	0.888
3475.02	0.8914
3484.76	0.8942
3494.5	0.896
3504.24	0.8972
3513.98	0.8984
3523.72	0.9006
3533.46	0.9037
3543.2	0.9073
3552.94	0.91
3562.68	0.9119
3572.42	0.9132
3582.16	0.9143
3591.9	0.9145
3601.64	0.9148
3611.38	0.9149
3621.12	0.9147
3630.86	0.9141
3640.6	0.9133
3650.34	0.9121
3660.08	0.9091
3669.82	0.9036
3679.56	0.8983
3689.3	0.895
3699.04	0.9055
3708.78	0.9133
3718.52	0.9133
3728.26	0.9086
3738	0.902
3747.74	0.9031
3757.48	0.9014
3767.22	0.8935
3776.96	0.8814
3786.7	0.8894
3796.44	0.9054
3806.18	0.9134
3815.92	0.9135
