Infrared Spectrum: 1,3-Dioxane
Formula: C 4 H 8 O 2
CAS: 505-22-6
State: gas
Instrument: HP-GC/MS/IRD
Origin: NIST Mass Spectrometry Data Center
1/CM	ABSORBANCE
550	0.00018
562	0.000364
574	0.000236
586	5.8e-05
598	6e-05
610	0.000164
622	0.000338
634	0.000444
646	0.000704
658	0.000778
670	0.000496
682	0.000132
694	9.2e-05
706	0.000176
718	0.000164
730	0.00013
742	6.4e-05
754	2.2e-05
766	8.6e-05
778	0.000132
790	0.00016
802	0.000506
814	0.001274
826	0.001804
838	0.002074
850	0.001842
862	0.001476
874	0.00234
886	0.004162
898	0.005302
910	0.004822
922	0.004142
934	0.002212
946	0.000898
958	0.001216
970	0.002608
982	0.005714
994	0.013302
1006	0.01833
1018	0.016644
1030	0.014032
1042	0.007778
1054	0.006546
1066	0.005532
1078	0.004316
1090	0.00439
1102	0.004714
1114	0.004496
1126	0.005136
1138	0.010606
1150	0.01674
1162	0.01869
1174	0.019284
1186	0.012692
1198	0.008758
1210	0.007908
1222	0.00533
1234	0.004238
1246	0.002812
1258	0.001054
1270	0.000838
1282	0.001138
1294	0.00134
1306	0.00112
1318	0.00074
1330	0.000568
1342	0.000656
1354	0.001122
1366	0.001782
1378	0.002026
1390	0.002364
1402	0.00182
1414	0.001598
1426	0.00111
1438	0.0011
1450	0.001228
1462	0.001386
1474	0.001316
1486	0.001324
1498	0.000674
1510	0.000336
1522	0.000106
1534	6.2e-05
1546	5.6e-05
1558	3e-05
1570	4.4e-05
1582	1.4e-05
1594	8e-06
1606	3e-05
1618	6.4e-05
1630	5.4e-05
1642	8.6e-05
1654	9.2e-05
1666	0.000104
1678	9.4e-05
1690	3.2e-05
1702	5e-05
1714	6.2e-05
1726	7e-05
1738	9.2e-05
1750	8.2e-05
1762	5e-05
1774	7.8e-05
1786	8e-05
1798	6.6e-05
1810	6.8e-05
1822	4.6e-05
1834	6e-05
1846	5.6e-05
1858	6.2e-05
1870	0.000102
1882	0.000102
1894	0.000178
1906	0.000254
1918	0.000318
1930	0.00032
1942	0.00032
1954	0.000256
1966	0.000184
1978	0.00021
1990	0.000218
2002	0.000266
2014	0.00022
2026	0.000164
2038	0.00019
2050	0.000186
2062	0.000158
2074	4.4e-05
2086	9.2e-05
2098	4.4e-05
2110	7.6e-05
2122	9.2e-05
2134	8.2e-05
2146	0.000102
2158	0.000154
2170	0.000122
2182	0.000136
2194	9e-05
2206	2.4e-05
2218	4e-05
2230	4.2e-05
2242	6.8e-05
2254	5e-05
2266	9.6e-05
2278	6.6e-05
2290	0.000126
2302	0.000106
2314	0.00014
2326	0.000114
2338	8.2e-05
2350	0.000172
2362	0.000182
2374	0.000168
2386	0.000128
2398	0.000118
2410	6.4e-05
2422	5.2e-05
2434	5.4e-05
2446	4.8e-05
2458	6e-05
2470	5.6e-05
2482	4e-05
2494	6.6e-05
2506	7.8e-05
2518	8e-05
2530	9.4e-05
2542	0.000154
2554	0.000196
2566	0.000208
2578	0.000168
2590	0.000238
2602	0.000202
2614	0.000194
2626	0.000372
2638	0.000376
2650	0.000478
2662	0.000716
2674	0.000676
2686	0.000838
2698	0.001108
2710	0.001216
2722	0.001608
2734	0.002048
2746	0.00316
2758	0.003654
2770	0.004184
2782	0.00471
2794	0.003348
2806	0.003724
2818	0.00572
2830	0.01085
2842	0.014426
2854	0.02
2866	0.01107
2878	0.006898
2890	0.003462
2902	0.002862
2914	0.003854
2926	0.005608
2938	0.006998
2950	0.007736
2962	0.014542
2974	0.012054
2986	0.012756
2998	0.010598
3010	0.00606
3022	0.00388
3034	0.001692
3046	0.0005
3058	0.000272
3070	0.000264
3082	0.000256
3094	0.000264
3106	0.000204
3118	0.000232
3130	0.000172
3142	6.2e-05
3154	0.000102
3166	8.6e-05
3178	0.000164
3190	9.2e-05
3202	7.4e-05
3214	0.000154
3226	8e-05
3238	0.000146
3250	0.000172
3262	0.000132
3274	8.8e-05
3286	0.00012
3298	6e-05
3310	7.4e-05
3322	3.4e-05
3334	0.000112
3346	6e-05
3358	4e-06
3370	0.00011
3382	6.2e-05
3394	0.000152
3406	9.8e-05
3418	0.000114
3430	0.00011
3442	1.4e-05
3454	0.000168
3466	5.4e-05
3478	0.000104
3490	0.000158
3502	7.8e-05
3514	9e-05
3526	0.000104
3538	0.000124
3550	7.8e-05
3562	9.4e-05
3574	5.4e-05
3586	0.00012
3598	0.000106
3610	0.000108
3622	0.000224
3634	3.8e-05
3646	1e-05
3658	0.000104
3670	9.2e-05
3682	0.000138
3694	0.000172
3706	0.000106
3718	0.000128
3730	0.000174
3742	0.00024
3754	0.000186
3766	0.000166
3778	0.000204
3790	0.000116
3802	0.000162
3814	0.000108
3826	0.000136
3838	0.000164
