Infrared Spectrum: m-Dioxane
Formula: C4 H8 O2
CAS: 505-22-6
State: SOLUTION (10% CCl4 FOR 4000-1330, 10% CS2 FOR 1330-450 CM^-^1) VS SOLVENT
Class: COBLENTZ III
Instrument: CARY 90 (GRATING)
Instrument parameters: GRATING CHANGES: 3000, 2000, 1200 CM^-^1
Sampling: TRANSMISSION
Path length: 0.010 CM, AND 0.010 CM
Resolution: 2
Origin: WESTERN REGIONAL RES. USDA
1/CM	TRANSMITTANCE
528	0.8613
537	0.8713
546	0.8814
555	0.8883
564	0.892
573	0.8946
582	0.8959
591	0.8961
600	0.8944
609	0.892
618	0.8858
627	0.8761
636	0.8429
645	0.5187
654	0.8393
663	0.8793
672	0.8927
681	0.8964
690	0.8991
699	0.9001
708	0.9009
717	0.8999
726	0.8989
735	0.8976
744	0.8962
753	0.8952
762	0.8943
771	0.8921
780	0.8886
789	0.8817
798	0.872
807	0.851
816	0.7919
825	0.3406
834	0.1886
843	0.7843
852	0.8115
861	0.7805
870	0.6075
879	0.2918
888	0.5432
897	0.1328
906	0.0739
915	0.5484
924	0.7098
933	0.7352
942	0.7564
951	0.7767
960	0.7619
969	0.656
978	0.3501
987	0.0052
996	0.1486
1005	0.0263
1014	0.0971
1023	0.4392
1032	0.4765
1041	0.1646
1050	0.1918
1059	0.6555
1068	0.6314
1077	0.3807
1086	0.0556
1095	0.2611
1104	0.6506
1113	0.6685
1122	0.5392
1131	0.1501
1140	0.204
1149	0.0592
1158	0.0797
1167	0.2713
1176	0.3559
1185	0.0388
1194	0.1987
1203	0.576
1212	0.5698
1221	0.1591
1230	0.133
1239	0.682
1248	0.7658
1257	0.7886
1266	0.7896
1275	0.7405
1284	0.4322
1293	0.5693
1302	0.6528
1311	0.7259
1320	0.7379
1329	0.7844
1338	0.7669
1347	0.7391
1356	0.6836
1365	0.7142
1374	0.4635
1383	0.7215
1392	0.7157
1401	0.453
1410	0.738
1419	0.7371
1428	0.4461
1437	0.7409
1446	0.7384
1455	0.461
1464	0.5612
1473	0.4882
1482	0.7008
1491	0.7818
1500	0.7982
1509	0.8114
1518	0.8252
1527	0.8345
1536	0.8396
1545	0.8422
1554	0.8428
1563	0.8427
1572	0.8418
1581	0.8398
1590	0.8375
1599	0.835
1608	0.8328
1617	0.8332
1626	0.8342
1635	0.8373
1644	0.8386
1653	0.8352
1662	0.8331
1671	0.8405
1680	0.852
1689	0.8525
1698	0.8535
1707	0.8517
1716	0.8497
1725	0.8425
1734	0.8301
1743	0.841
1752	0.8428
1761	0.8333
1770	0.8435
1779	0.8379
1788	0.8408
1797	0.8415
1806	0.845
1815	0.8497
1824	0.8494
1833	0.8475
1842	0.8406
1851	0.8565
1860	0.8559
1869	0.8496
1878	0.8407
1887	0.8274
1896	0.8301
1905	0.8372
1914	0.8174
1923	0.786
1932	0.7865
1941	0.8304
1950	0.8352
1959	0.8383
1968	0.8396
1977	0.8291
1986	0.8036
1995	0.8065
2004	0.8379
2013	0.8476
2022	0.84
2031	0.8362
2040	0.8455
2049	0.8473
2058	0.8479
2067	0.8532
2076	0.8556
2085	0.8537
2094	0.8516
2103	0.8571
2112	0.8614
2121	0.8589
2130	0.8573
2139	0.8554
2148	0.8508
2157	0.8412
2166	0.8478
2175	0.862
2184	0.8652
2193	0.867
2202	0.8687
2211	0.8694
2220	0.8688
2229	0.8665
2238	0.8628
2247	0.8639
2256	0.8673
2265	0.8676
2274	0.8664
2283	0.864
2292	0.8614
2301	0.8606
2310	0.8609
2319	0.8631
2328	0.8612
2337	0.8564
2346	0.8553
2355	0.8543
2364	0.8562
2373	0.8586
2382	0.8623
2391	0.866
2400	0.8687
2409	0.8712
2418	0.8737
2427	0.8748
2436	0.8759
2445	0.877
2454	0.8769
2463	0.8769
2472	0.877
2481	0.8768
2490	0.8763
2499	0.8756
2508	0.8748
2517	0.8739
2526	0.8712
2535	0.8655
2544	0.8571
2553	0.8531
2562	0.8558
2571	0.866
2580	0.8718
2589	0.8744
2598	0.8669
2607	0.8585
2616	0.8602
2625	0.8513
2634	0.8506
2643	0.8341
2652	0.7835
2661	0.7937
2670	0.8358
2679	0.8275
2688	0.769
2697	0.7245
2706	0.6688
2715	0.7433
2724	0.7907
2733	0.6812
2742	0.481
2751	0.5109
2760	0.5559
2769	0.4867
2778	0.206
2787	0.4351
2796	0.6971
2805	0.6766
2814	0.6094
2823	0.4262
2832	0.2304
2841	0.0434
2850	0.0204
2859	0.0606
2868	0.2202
2877	0.3797
2886	0.5393
2895	0.6268
2904	0.5252
2913	0.3926
2922	0.26
2931	0.267
2940	0.3795
2949	0.2743
2958	0.1072
2967	0.1365
2976	0.092
2985	0.226
2994	0.2623
3003	0.3655
3012	0.5083
3021	0.6991
3030	0.7824
3039	0.8266
3048	0.8507
3057	0.8635
3066	0.8739
3075	0.8807
3084	0.8852
3093	0.8884
3102	0.8895
3111	0.8895
3120	0.8907
3129	0.8953
3138	0.9005
3147	0.9028
3156	0.9029
3165	0.9031
3174	0.9033
3183	0.9035
3192	0.9035
3201	0.9035
3210	0.9034
3219	0.9033
3228	0.9032
3237	0.9032
3246	0.9038
3255	0.9044
3264	0.9055
3273	0.9068
3282	0.9083
3291	0.9096
3300	0.9111
3309	0.9126
3318	0.9141
3327	0.9156
3336	0.9174
3345	0.9171
3354	0.9168
3363	0.9164
3372	0.9147
3381	0.9128
3390	0.9109
3399	0.9089
3408	0.9081
3417	0.9075
3426	0.907
3435	0.9058
3444	0.9039
3453	0.902
3462	0.9
3471	0.8981
3480	0.8953
3489	0.8921
3498	0.8889
3507	0.8857
3516	0.8827
3525	0.8797
3534	0.879
3543	0.8794
3552	0.8811
3561	0.883
3570	0.885
3579	0.8876
3588	0.8902
3597	0.8928
3606	0.8948
3615	0.8968
3624	0.8988
3633	0.8998
3642	0.9006
3651	0.901
3660	0.8981
3669	0.8951
3678	0.8908
3687	0.8864
3696	0.8852
3705	0.8908
3714	0.896
3723	0.8991
3732	0.9001
3741	0.9001
3750	0.9
3759	0.8996
3768	0.8991
3777	0.8984
3786	0.8978
3795	0.8971
3804	0.8964
3813	0.8957
3822	0.8955
3831	0.8967
3840	0.8979
3849	0.8989
3858	0.8998
3867	0.9008
3876	0.8996
3885	0.8978
3894	0.8945
3903	0.8902
3912	0.8869
3921	0.885
3930	0.8834
3939	0.8865
3948	0.8898
3957	0.8921
3966	0.8936
3975	0.8939
3984	0.8944
3993	0.8947
4002	0.8952
