Infrared Spectrum: 2H-Pyran, tetrahydro-
Formula: C 5 H 10 O
CAS: 142-68-7
State: gas
Origin: Sadtler Research Labs Under US-EPA Contract
1/CM	ABSORBANCE
450	0.00643018
462	0.0139071
474	0.0186924
486	0.00194401
498	0.0061311
510	0.00702833
522	0.00358894
534	0.0095705
546	0.0154025
558	0.0237767
570	0.0314032
582	0.0225804
594	0.00523386
606	0.00493479
618	0.00328986
630	0.00448617
642	0.00403755
654	0.00164493
666	0.00284124
678	0.00239262
690	0.00209355
702	0.00328986
714	0.00314032
726	0.00194401
738	0.00328986
750	0.00284124
762	0.0026917
774	0.00448617
786	0.00837418
798	0.0201878
810	0.0234776
822	0.026917
834	0.0255712
846	0.0390297
858	0.0998921
870	0.200831
882	0.170624
894	0.0560771
906	0.0162998
918	0.00657972
930	0.00508433
942	0.0053834
954	0.0174961
966	0.0260198
978	0.0254216
990	0.0318518
1002	0.0580211
1014	0.0867326
1026	0.114995
1038	0.155521
1050	0.182886
1062	0.143857
1074	0.166586
1086	0.339753
1098	0.425588
1110	0.347529
1122	0.130697
1134	0.0267675
1146	0.0185428
1158	0.0408241
1170	0.0366371
1182	0.103631
1194	0.211448
1206	0.217878
1218	0.155072
1230	0.0432168
1242	0.0337958
1254	0.0439645
1266	0.0635541
1278	0.0695356
1290	0.0693861
1302	0.059367
1314	0.0243749
1326	0.0124117
1338	0.0162998
1350	0.0345435
1362	0.0406746
1374	0.0563762
1386	0.0463571
1398	0.0315527
1410	0.013309
1422	0.0290106
1434	0.0481516
1446	0.102285
1458	0.0822464
1470	0.0782089
1482	0.0279638
1494	0.0174961
1506	0.00553294
1518	0.000897234
1530	0.000598156
1542	0.000747695
1554	0.000448617
1566	0.000897234
1578	0.00149539
1590	0.000598156
1602	0.00119631
1614	0.00119631
1626	0.00164493
1638	0.00164493
1650	0.00194401
1662	0.00134585
1674	0.00194401
1686	0.00194401
1698	0.00164493
1710	0.00224308
1722	0.00254216
1734	0.00254216
1746	0.00747695
1758	0.00732741
1770	0.00463571
1782	0.00388801
1794	0.00299078
1806	0.00134585
1818	0.00134585
1830	0.00179447
1842	0.00134585
1854	0.00209355
1866	0.00149539
1878	0.00179447
1890	0.00373847
1902	0.00657972
1914	0.00822464
1926	0.00852372
1938	0.00433663
1950	0.00433663
1962	0.00598156
1974	0.00657972
1986	0.00403755
1998	0.00194401
2010	0.00224308
2022	0.00239262
2034	0.00224308
2046	0.00179447
2058	0.00194401
2070	0.00239262
2082	0.00254216
2094	0.00134585
2106	0.00104677
2118	0.00149539
2130	0.00164493
2142	0.00209355
2154	0.00194401
2166	0.00224308
2178	0.00254216
2190	0.00314032
2202	0.00478525
2214	0.00418709
2226	0.00373847
2238	0.00239262
2250	0.00314032
2262	0.0034394
2274	0.00149539
2286	0.000598156
2298	0.000448617
2310	0.000448617
2322	0.00104677
2334	0.00134585
2346	0.00134585
2358	0.000747695
2370	0.000897234
2382	0.00119631
2394	0.00224308
2406	0.00224308
2418	0.00134585
2430	0.00119631
2442	0.00119631
2454	0.00104677
2466	0.00119631
2478	0.000747695
2490	0.00194401
2502	0.0026917
2514	0.00239262
2526	0.00209355
2538	0.00179447
2550	0.000747695
2562	0.00104677
2574	0.000747695
2586	0.00239262
2598	0.00568248
2610	0.00807511
2622	0.0130099
2634	0.0122622
2646	0.0142062
2658	0.017197
2670	0.0233281
2682	0.0333472
2694	0.0330481
2706	0.0390297
2718	0.0530863
2730	0.0412728
2742	0.0424691
2754	0.0451608
2766	0.0282629
2778	0.0379829
2790	0.032749
2802	0.0614605
2814	0.13309
2826	0.304611
2838	0.494226
2850	0.663056
2862	0.480917
2874	0.314929
2886	0.164792
2898	0.111407
2910	0.205915
2922	0.521442
2934	0.932974
2946	1.49539
2958	1.00685
2970	0.759957
2982	0.424093
2994	0.105425
3006	0.0160007
3018	0.00732741
3030	0.00508433
3042	0.00314032
3054	0.00388801
3066	0.00508433
3078	0.00628064
3090	0.00643018
3102	0.00493479
3114	0.00284124
3126	0.00314032
3138	0.00239262
3150	0.00314032
3162	0.00478525
3174	0.00747695
3186	0.00807511
3198	0.00747695
3210	0.00568248
3222	0.00463571
3234	0.00284124
3246	0.00164493
3258	0.00119631
3270	0.000747695
3282	0.000747695
3294	0.00164493
3306	0.0026917
3318	0.00358894
3330	0.00284124
3342	0.00239262
3354	0.00209355
3366	0.00239262
3378	0.00224308
3390	0.00194401
3402	0.00194401
3414	0.00314032
3426	0.00194401
3438	0.00164493
3450	0.00119631
3462	0.00149539
3474	0.00179447
3486	0.00179447
3498	0.00314032
3510	0.0034394
3522	0.0026917
3534	0.00224308
3546	0.00104677
3558	0.000149539
3570	0.00179447
3582	0.00119631
3594	0.00134585
3606	0.00104677
3618	0.00194401
3630	0.00299078
3642	0.00164493
3654	0.00284124
3666	0.00299078
3678	0.00433663
3690	0.00239262
3702	0.0034394
3714	0.00403755
3726	0.00418709
3738	0.00388801
3750	0.00493479
3762	0.00403755
3774	0.00284124
3786	0.00314032
3798	0.00164493
3810	0.0034394
3822	0.00463571
3834	0.00284124
3846	0.00433663
3858	0.00358894
3870	0.00358894
3882	0.00299078
3894	0.00418709
3906	0.00403755
3918	0.00373847
3930	0.00568248
3942	0.0053834
3954	0.00583202
3966	0.0053834
