Infrared Spectrum: 1-Bromo-1-chloroethane
Formula: C 2 H 4 Br Cl
CAS: 593-96-4
State: gas
Origin: EPA-IR VAPOR PHASE LIBRARY
1/CM	ABSORBANCE
549.8	0.003948
559.445	0.010418
569.09	0.017698
578.735	0.021408
588.38	0.013188
598.025	0.002818
607.67	0.0015751
617.315	0.00083959
626.96	0.0011545
636.605	0.001938
646.251	0.005488
655.896	0.012908
665.541	0.030928
675.186	0.057978
684.831	0.064628
694.476	0.054568
704.121	0.016678
713.766	0.003218
723.411	0.0014065
733.056	0.0010373
742.701	0.00090214
752.346	0.000621
761.991	0.000665
771.636	0.000576
781.281	0.000551
790.926	0.000542
800.571	0.000599
810.216	0.0007429
819.861	0.00081557
829.507	0.000697
839.152	0.0007857
848.797	0.00047
858.442	0.000592
868.087	0.000683
877.732	0.000634
887.377	0.000824146
897.022	0.000658
906.667	0.000747
916.312	0.0007743
925.957	0.00087292
935.602	0.0013324
945.247	0.002248
954.892	0.004108
964.537	0.005988
974.182	0.007218
983.827	0.006868
993.472	0.004728
1003.12	0.002498
1012.76	0.0015277
1022.41	0.001888
1032.05	0.007348
1041.7	0.024218
1051.34	0.029468
1060.99	0.029418
1070.63	0.009758
1080.28	0.004728
1089.92	0.002988
1099.57	0.0012057
1109.21	0.0008068
1118.86	0.00088965
1128.5	0.0010882
1138.15	0.0012495
1147.79	0.0016156
1157.44	0.001868
1167.08	0.003588
1176.73	0.013828
1186.37	0.034898
1196.02	0.041248
1205.66	0.038498
1215.31	0.009768
1224.95	0.004678
1234.6	0.003738
1244.24	0.004348
1253.89	0.006178
1263.53	0.008948
1273.18	0.006848
1282.82	0.005948
1292.47	0.002778
1302.11	0.0012501
1311.76	0.0007674
1321.4	0.0007682
1331.05	0.0008885
1340.69	0.0012903
1350.34	0.002018
1359.98	0.003088
1369.63	0.005038
1379.27	0.006388
1388.92	0.007528
1398.56	0.005138
1408.21	0.003058
1417.85	0.003028
1427.5	0.004628
1437.14	0.006378
1446.79	0.006638
1456.43	0.005368
1466.08	0.003458
1475.73	0.001928
1485.37	0.0010272
1495.02	0.000643
1504.66	0.000505
1514.31	0.000415
1523.95	0.000387
1533.6	0.000398
1543.24	0.000456
1552.89	0.000433
1562.53	0.000428
1572.18	0.00037
1581.82	0.000281
1591.47	0.000368
1601.11	0.000295
1610.76	0.000325
1620.4	0.000378
1630.05	0.000417
1639.69	0.000443
1649.34	0.000529
1658.98	0.000541
1668.63	0.000529
1678.27	0.000541
1687.92	0.000537
1697.56	0.000634
1707.21	0.000511
1716.85	0.000524
1726.5	0.000372
1736.14	0.000444
1745.79	0.000413
1755.43	0.000361
1765.08	0.000347
1774.72	0.000384
1784.37	0.000301
1794.01	0.000284
1803.66	0.000287
1813.3	0.00027
1822.95	0.00031
1832.59	0.000252
1842.24	0.000345
1851.88	0.000263
1861.53	0.000292
1871.17	0.000308
1880.82	0.000285
1890.46	0.000324
1900.11	0.000264
1909.75	0.000305
1919.4	0.000326
1929.04	0.000389
1938.69	0.000448
1948.33	0.000485
1957.98	0.000418
1967.62	0.000379
1977.27	0.00028
1986.91	0.000272
1996.56	0.00029
2006.2	0.000342
2015.85	0.000362
2025.49	0.000367
2035.14	0.000398
2044.78	0.000417
2054.43	0.000445
2064.07	0.000415
2073.72	0.000288
2083.36	0.00025
2093.01	0.000307
2102.65	0.000344
2112.3	0.000339
2121.94	0.000363
2131.59	0.00036
2141.23	0.000375
2150.88	0.000347
2160.52	0.000484
2170.17	0.000318
2179.81	0.000369
2189.46	0.000306
2199.1	0.000252
2208.75	0.000348
2218.39	0.000347
2228.04	0.000389
2237.68	0.000352
2247.33	0.000419
2256.97	0.000339
2266.62	0.000304
2276.26	0.000351
2285.91	0.000328
2295.55	0.000315
2305.2	0.000334
2314.84	0.000514
2324.49	0.000537
2334.13	0.000635
2343.78	0.000588
2353.42	0.000669
2363.07	0.0007361
2372.72	0.000631
2382.36	0.000559
2392.01	0.000478
2401.65	0.000419
2411.3	0.000508
2420.94	0.000581
2430.59	0.000693
2440.23	0.0007442
2449.88	0.0007556
2459.52	0.00085332
2469.17	0.000704
2478.81	0.000605
2488.46	0.000648
2498.1	0.000525
2507.75	0.000565
2517.39	0.000478
2527.04	0.000643
2536.68	0.000571
2546.33	0.000509
2555.97	0.000408
2565.62	0.000455
2575.26	0.00033
2584.91	0.000402
2594.55	0.00034
2604.2	0.000382
2613.84	0.00041
2623.49	0.000397
2633.13	0.000406
2642.78	0.000463
2652.42	0.00038
2662.07	0.000407
2671.71	0.000453
2681.36	0.000407
2691	0.000354
2700.65	0.000468
2710.29	0.000581
2719.94	0.000466
2729.58	0.000505
2739.23	0.000417
2748.87	0.000458
2758.52	0.000541
2768.16	0.000544
2777.81	0.000416
2787.45	0.000476
2797.1	0.000466
2806.74	0.000556
2816.39	0.0007243
2826.03	0.000672
2835.68	0.0007878
2845.32	0.00081496
2854.97	0.0011438
2864.61	0.0016916
2874.26	0.001878
2883.9	0.001848
2893.55	0.0016023
2903.19	0.001478
2912.84	0.001815
2922.48	0.003288
2932.13	0.005988
2941.77	0.004768
2951.42	0.005308
2961.06	0.002738
2970.71	0.003618
2980.35	0.008388
2990	0.010618
2999.64	0.010698
3009.29	0.005608
3018.93	0.005308
3028.58	0.003328
3038.22	0.001978
3047.87	0.0009826
3057.51	0.000519
3067.16	0.000524
3076.8	0.000419
3086.45	0.000432
3096.09	0.000525
3105.74	0.000482
3115.38	0.00039
3125.03	0.000347
3134.67	0.000359
3144.32	0.000402
3153.96	0.000361
3163.61	0.00027
3173.25	0.000498
3182.9	0.000391
3192.54	0.000561
3202.19	0.000268
3211.83	0.000598
3221.48	0.000472
3231.12	0.000562
3240.77	0.000529
3250.41	0.000429
3260.06	0.0007365
3269.7	0.000639
3279.35	0.000461
3289	0.000682
3298.64	0.000328
3308.29	0.00029
3317.93	0.000282
3327.58	0.000264
3337.22	0.000361
3346.87	0.00037
3356.51	0.000417
3366.16	0.000373
3375.8	0.000407
3385.45	0.000388
3395.09	0.000452
3404.74	0.000355
3414.38	0.00027
3424.03	0.000493
3433.67	0.000435
3443.32	0.000161
3452.96	0.000127
3462.61	0.000254
3472.25	0.000296
3481.9	0.000348
3491.54	0.000364
3501.19	0.000175
3510.83	0.000168
3520.48	0.000169
3530.12	0.000419
3539.77	0.000119
3549.41	0.000357
3559.06	0.000194
3568.7	0.000397
3578.35	0.000245
3587.99	0.00032
3597.64	0.000342
3607.28	0.00043
3616.93	0.000493
3626.57	0.000385
3636.22	0.000387
3645.86	0.000205
3655.51	0.000312
3665.15	0.000374
3674.8	0.000362
3684.44	0.000456
3694.09	0.000348
3703.73	0.000351
3713.38	0.00033
3723.02	0.000368
3732.67	0.000326
3742.31	0.000237
3751.96	0.000337
3761.6	0.000255
3771.25	0.000395
3780.89	0.000232
3790.54	0.00034
3800.18	0.000379
3809.83	0.000206
3819.47	0.000327
3829.12	0.000508
3838.76	0.000486
3848.41	0.000527
3858.05	0.000241
3867.7	0.000484
3877.34	0.0004
3886.99	0.000373
3896.63	0.000398
3906.28	0.000607
3915.92	0.000514
3925.57	0.000357
3935.21	0.000347
3944.86	0.000388
3954.5	0.000386
3964.15	0.000601
3973.79	0.000531
3983.44	0.000569
3993.08	0.000711
