Infrared Spectrum: Ethanol, 2,2,2-trichloro-
Formula: C 2 H 3 Cl 3 O
CAS: 115-20-8
State: gas
Origin: Sadtler Research Labs Under US-EPA Contract
1/CM	ABSORBANCE
450	0
462	0.0188466
474	0.0164326
486	0.0216842
498	0.0157549
510	0.0117315
522	0.0185925
534	0.0125362
546	0.0279947
558	0.112402
570	0.168053
582	0.0731843
594	0.0239289
606	0.0187196
618	0.0203713
630	0.012748
642	0.0179996
654	0.0219383
666	0.0238442
678	0.0289688
690	0.0438343
702	0.0841534
714	0.238611
726	0.42352
738	0.219637
750	0.0370156
762	0.0285452
774	0.0282064
786	0.0425638
798	0.106431
810	0.267622
822	0.362025
834	0.231411
846	0.140566
858	0.102915
870	0.0431567
882	0.0210913
894	0.0175761
906	0.0169408
918	0.0159244
930	0.0171949
942	0.017449
954	0.0226583
966	0.0249453
978	0.0282064
990	0.073396
1002	0.181859
1014	0.178895
1026	0.101899
1038	0.0773771
1050	0.0478578
1062	0.0407003
1074	0.0660691
1086	0.219553
1098	0.384133
1110	0.197106
1122	0.0319758
1134	0.0265124
1146	0.0213031
1158	0.0193972
1170	0.0205831
1182	0.0204984
1194	0.035618
1206	0.104101
1218	0.13523
1230	0.0680173
1242	0.0293076
1254	0.023463
1266	0.0269359
1278	0.0293499
1290	0.0236748
1302	0.0197784
1314	0.0206254
1326	0.0287994
1338	0.0475613
1350	0.0637398
1362	0.062088
1374	0.0904639
1386	0.106642
1398	0.0649256
1410	0.0332463
1422	0.0187619
1434	0.0184655
1446	0.0285452
1458	0.0345169
1470	0.0203713
1482	0.013722
1494	0.0122397
1506	0.0126209
1518	0.0133832
1530	0.0134679
1542	0.0119009
1554	0.012028
1566	0.012748
1578	0.0116468
1590	0.0123668
1602	0.0133409
1614	0.0156702
1626	0.0196513
1638	0.0199054
1650	0.0168984
1662	0.0129174
1674	0.0121974
1686	0.0140609
1698	0.0187196
1710	0.0199901
1722	0.0154585
1734	0.0132985
1746	0.0148656
1758	0.0155008
1770	0.0136797
1782	0.0132985
1794	0.0127056
1806	0.0120703
1818	0.012028
1830	0.0116468
1842	0.0116044
1854	0.0118162
1866	0.012028
1878	0.0119433
1890	0.012155
1902	0.0119009
1914	0.0126209
1926	0.0124091
1938	0.0124938
1950	0.0124515
1962	0.0128327
1974	0.0120703
1986	0.0123668
1998	0.0122821
2010	0.0119856
2022	0.0107998
2034	0.00969861
2046	0.00948685
2058	0.00910568
2070	0.00859746
2082	0.0107151
2094	0.0131715
2106	0.0136797
2118	0.0134256
2130	0.0131715
2142	0.0130868
2154	0.0138491
2166	0.015035
2178	0.0178302
2190	0.0174914
2202	0.0140185
2214	0.0125785
2226	0.0132138
2238	0.0127903
2250	0.012155
2262	0.012155
2274	0.0120703
2286	0.0116892
2298	0.0110962
2310	0.0114774
2322	0.0136373
2334	0.0142303
2346	0.00978331
2358	0.0111809
2370	0.00775042
2382	0.00775042
2394	0.0109268
2406	0.0119009
2418	0.012155
2430	0.0119856
2442	0.0116892
2454	0.0116044
2466	0.0122397
2478	0.0113927
2490	0.0110962
2502	0.010588
2514	0.0102492
2526	0.0104186
2538	0.0103762
2550	0.0107151
2562	0.010588
2574	0.0100374
2586	0.0102915
2598	0.0105033
2610	0.011308
2622	0.0122397
2634	0.0123244
2646	0.0126632
2658	0.0137644
2670	0.0125362
2682	0.00948685
2694	0.00940214
2706	0.00965626
2718	0.00910568
2730	0.00893627
2742	0.00885157
2754	0.00859746
2766	0.00821629
2778	0.00902098
2790	0.00817394
2802	0.00889392
2814	0.00919038
2826	0.0100374
2838	0.0101645
2850	0.0109268
2862	0.014442
2874	0.0262159
2886	0.030324
2898	0.0193549
2910	0.016729
2922	0.0365921
2934	0.0729725
2946	0.0512459
2958	0.0253688
2970	0.0259194
2982	0.0339663
2994	0.02503
3006	0.0133409
3018	0.0105033
3030	0.0100798
3042	0.0105456
3054	0.0100798
3066	0.00935979
3078	0.0104609
3090	0.00969861
3102	0.00927509
3114	0.00948685
3126	0.0094445
3138	0.00889392
3150	0.00880922
3162	0.0084704
3174	0.00893627
3186	0.00931744
3198	0.0094445
3210	0.00872451
3222	0.0100374
3234	0.0096139
3246	0.0110539
3258	0.0102492
3270	0.0109692
3282	0.0103762
3294	0.00808923
3306	0.00969861
3318	0.0084704
3330	0.00931744
3342	0.00940214
3354	0.0109692
3366	0.010588
3378	0.0117739
3390	0.0109268
3402	0.0112233
3414	0.00982566
3426	0.0102915
3438	0.0108845
3450	0.0103339
3462	0.0110539
3474	0.0110539
3486	0.0113503
3498	0.0122397
3510	0.0113927
3522	0.012875
3534	0.011435
3546	0.0102915
3558	0.0116892
3570	0.0123668
3582	0.0138068
3594	0.0107151
3606	0.0200748
3618	0.0719137
3630	0.161149
3642	0.106769
3654	0.0234207
3666	0.0142726
3678	0.0112233
3690	0.0103339
3702	0.0116892
3714	0.00775042
3726	0.0114774
3738	0.00842805
3750	0.00775042
3762	0.0112656
3774	0.0117739
3786	0.0121127
3798	0.0120703
3810	0.00986802
3822	0.00982566
3834	0.0106304
3846	0.00982566
3858	0.0104609
3870	0.0112233
3882	0.0117739
3894	0.0179149
3906	0.00851275
3918	0.0176184
3930	0.019016
3942	0.0163479
3954	0.0155008
3966	0.0120703
