Infrared Spectrum: Carbamic acid, ethyl ester
Formula: C3 H7 N O2
CAS: 51-79-6
State: SOLUTION (CCl4 FOR 2-9.6, CS2 FOR 8.6-16 MICRON) VS SOLVENT
Melting point: 50 C
Class: COBLENTZ III
Instrument: BAIRD (GRATING)
Instrument parameters: NaCl PRISM
Path length: 0.01 CM, AND 0.01 CM , REFERENCE CELLS : 0.05 CM
Resolution: 2
Origin: WYANDOTTE CHEMICALS CORP.
1/CM	TRANSMITTANCE
626	0.8149
635	0.8139
644	0.8138
653	0.8173
662	0.8236
671	0.8291
680	0.8336
689	0.8305
698	0.8353
707	0.8432
716	0.8415
725	0.8367
734	0.8416
743	0.8353
752	0.8181
761	0.8029
770	0.7197
779	0.6375
788	0.7104
797	0.7498
806	0.8337
815	0.8486
824	0.8537
833	0.8091
842	0.6908
851	0.5908
860	0.6142
869	0.6598
878	0.7222
887	0.7854
896	0.8695
905	0.9022
914	0.9078
923	0.9081
932	0.9056
941	0.8959
950	0.8572
959	0.8559
968	0.8715
977	0.8654
986	0.8491
995	0.8871
1004	0.9043
1013	0.9002
1022	0.8875
1031	0.8643
1040	0.829
1049	0.765
1058	0.5879
1067	0.2074
1076	0.136
1085	0.2981
1094	0.435
1103	0.36
1112	0.4819
1121	0.574
1130	0.5748
1139	0.6077
1148	0.7178
1157	0.7444
1166	0.7394
1175	0.7347
1184	0.7777
1193	0.7893
1202	0.7758
1211	0.7579
1220	0.7545
1229	0.7611
1238	0.76
1247	0.7398
1256	0.7248
1265	0.7391
1274	0.7524
1283	0.747
1292	0.728
1301	0.6812
1310	0.6237
1319	0.4853
1328	0.2089
1337	0.0551
1346	0.2453
1355	0.4979
1364	0.7461
1373	0.5206
1382	0.2197
1391	0.5038
1400	0.6399
1409	0.4625
1418	0.3998
1427	0.5564
1436	0.7076
1445	0.7552
1454	0.7276
1463	0.7421
1472	0.7154
1481	0.6989
1490	0.7493
1499	0.7855
1508	0.8308
1517	0.783
1526	0.7222
1535	0.6789
1544	0.6526
1553	0.6374
1562	0.6324
1571	0.6312
1580	0.625
1589	0.5568
1598	0.4636
1607	0.4084
1616	0.3874
1625	0.59
1634	0.7248
1643	0.8137
1652	0.8385
1661	0.8387
1670	0.8311
1679	0.7964
1688	0.7342
1697	0.5934
1706	0.4254
1715	0.2592
1724	0.0948
1733	0.0623
1742	0.2215
1751	0.3812
1760	0.5392
1769	0.7515
1778	0.8115
1787	0.8483
1796	0.885
1805	0.9057
1814	0.9174
1823	0.927
1832	0.9352
1841	0.9409
1850	0.9465
1859	0.9493
1868	0.9517
1877	0.9512
1886	0.9493
1895	0.9485
1904	0.9482
1913	0.949
1922	0.9507
1931	0.9537
1940	0.9575
1949	0.9607
1958	0.9634
1967	0.964
1976	0.9637
1985	0.9631
1994	0.9625
2003	0.9619
2012	0.9613
2021	0.9612
2030	0.961
2039	0.9609
2048	0.9608
2057	0.9603
2066	0.9597
2075	0.959
2084	0.9585
2093	0.9578
2102	0.9574
2111	0.9571
2120	0.9567
2129	0.9564
2138	0.9561
2147	0.9558
2156	0.9556
2165	0.9554
2174	0.9552
2183	0.9551
2192	0.9549
2201	0.9548
2210	0.9546
2219	0.9542
2228	0.9538
2237	0.9533
2246	0.9529
2255	0.9525
2264	0.9521
2273	0.9517
2282	0.9514
2291	0.9511
2300	0.9508
2309	0.9505
2318	0.9505
2327	0.9505
2336	0.9504
2345	0.9504
2354	0.9504
2363	0.9502
2372	0.9499
2381	0.9495
2390	0.9493
2399	0.949
2408	0.9486
2417	0.9483
2426	0.9481
2435	0.9481
2444	0.948
2453	0.948
2462	0.9479
2471	0.9478
2480	0.9477
2489	0.9473
2498	0.9469
2507	0.9466
2516	0.9462
2525	0.9458
2534	0.9451
2543	0.9443
2552	0.9435
2561	0.9428
2570	0.942
2579	0.9409
2588	0.9397
2597	0.9386
2606	0.9376
2615	0.9365
2624	0.9352
2633	0.9339
2642	0.9327
2651	0.9314
2660	0.9301
2669	0.9278
2678	0.9253
2687	0.9228
2696	0.9203
2705	0.9178
2714	0.9154
2723	0.9151
2732	0.915
2741	0.9149
2750	0.9148
2759	0.9148
2768	0.9148
2777	0.9147
2786	0.914
2795	0.9132
2804	0.9105
2813	0.9067
2822	0.9027
2831	0.8968
2840	0.8909
2849	0.885
2858	0.8784
2867	0.8719
2876	0.8638
2885	0.8525
2894	0.84
2903	0.8266
2912	0.8133
2921	0.8003
2930	0.7874
2939	0.7725
2948	0.7609
2957	0.7517
2966	0.742
2975	0.7315
2984	0.7041
2993	0.6744
3002	0.6474
3011	0.6809
3020	0.7336
3029	0.7858
3038	0.8379
3047	0.8767
3056	0.8821
3065	0.8825
3074	0.8825
3083	0.8815
3092	0.8794
3101	0.8773
3110	0.8743
3119	0.8667
3128	0.8596
3137	0.8526
3146	0.8436
3155	0.8325
3164	0.8114
3173	0.7867
3182	0.7345
3191	0.7253
3200	0.7233
3209	0.7216
3218	0.7186
3227	0.7026
3236	0.6388
3245	0.6207
3254	0.6207
3263	0.6222
3272	0.6254
3281	0.6271
3290	0.6277
3299	0.6291
3308	0.6419
3317	0.6541
3326	0.6655
3335	0.6815
3344	0.6938
3353	0.7005
3362	0.7065
3371	0.7098
3380	0.7115
3389	0.7117
3398	0.7118
3407	0.7123
3416	0.7139
3425	0.7158
3434	0.72
3443	0.7236
3452	0.7249
3461	0.7246
3470	0.7124
3479	0.698
3488	0.6836
3497	0.6693
3506	0.655
3515	0.6408
3524	0.6302
3533	0.6316
3542	0.6579
3551	0.6929
3560	0.7279
3569	0.7626
3578	0.7972
3587	0.8316
3596	0.8659
3605	0.8999
3614	0.93
3623	0.936
3632	0.942
3641	0.947
3650	0.9498
3659	0.9525
3668	0.9535
3677	0.9542
3686	0.9548
3695	0.9549
3704	0.9548
3713	0.9548
3722	0.9548
3731	0.9547
3740	0.9547
3749	0.9547
3758	0.9547
3767	0.9547
3776	0.9547
3785	0.9547
3794	0.9548
3803	0.9548
3812	0.9548
3821	0.9548
3830	0.9548
3839	0.9549
3848	0.9549
3857	0.955
3866	0.955
3875	0.9551
3884	0.9552
3893	0.9552
3902	0.9553
3911	0.9553
3920	0.9554
3929	0.9555
3938	0.9555
3947	0.9556
3956	0.9557
3965	0.9557
3974	0.9558
3983	0.9558
3992	0.9559
