Infrared Spectrum: Carbamic acid, ethyl ester
Formula: C3 H7 N O2
CAS: 51-79-6
State: SOLID (SPLIT MULL)
Class: COBLENTZ III
Instrument: BECKMAN IR-9 (GRATING)
Instrument parameters: ORDER CHANGES: 670, 1200, 2000 CM^-^1
Sampling: TRANSMISSION
Resolution: 2
Origin: DOW CHEMICAL COMPANY
1/CM	TRANSMITTANCE
3814	0.8668
3805	0.8668
3796	0.8671
3787	0.8692
3778	0.8708
3769	0.8724
3760	0.8737
3751	0.8743
3742	0.8749
3733	0.876
3724	0.8774
3715	0.8787
3706	0.8799
3697	0.881
3688	0.8812
3679	0.8813
3670	0.8809
3661	0.8802
3652	0.8794
3643	0.877
3634	0.8735
3625	0.8701
3616	0.8728
3607	0.8683
3598	0.8664
3589	0.8656
3580	0.862
3571	0.8566
3562	0.8477
3553	0.8371
3544	0.8234
3535	0.8038
3526	0.7768
3517	0.7417
3508	0.7108
3499	0.6439
3490	0.5331
3481	0.3888
3472	0.3084
3463	0.2224
3454	0.1561
3445	0.1385
3436	0.1367
3427	0.1571
3418	0.1887
3409	0.2166
3400	0.2427
3391	0.2639
3382	0.2732
3373	0.2696
3364	0.2591
3355	0.2475
3346	0.2446
3337	0.2594
3328	0.3133
3319	0.354
3310	0.3948
3301	0.4104
3292	0.3652
3283	0.2766
3274	0.2628
3265	0.3064
3256	0.3648
3247	0.3766
3238	0.3682
3229	0.3203
3220	0.294
3211	0.3255
3202	0.3576
3193	0.3892
3184	0.4837
3175	0.5503
3166	0.602
3157	0.6326
3148	0.6581
3139	0.6711
3130	0.6837
3121	0.6956
3112	0.7107
3103	0.725
3094	0.7355
3085	0.746
3076	0.7565
3067	0.7615
3058	0.7661
3049	0.7701
3040	0.7736
3031	0.7751
3022	0.7725
3013	0.75
3004	0.6767
2995	0.4481
2986	0.4836
2977	0.6801
2968	0.7121
2959	0.741
2950	0.7028
2941	0.6974
2932	0.7036
2923	0.6227
2914	0.6733
2905	0.7478
2896	0.7687
2887	0.7751
2878	0.7562
2869	0.7694
2860	0.7943
2851	0.7983
2842	0.7976
2833	0.7961
2824	0.7941
2815	0.7953
2806	0.7987
2797	0.8039
2788	0.809
2779	0.8119
2770	0.8106
2761	0.8086
2752	0.8085
2743	0.8121
2734	0.8158
2725	0.8213
2716	0.8268
2707	0.8348
2698	0.8418
2689	0.8483
2680	0.8534
2671	0.857
2662	0.861
2653	0.865
2644	0.8662
2635	0.8628
2626	0.8621
2617	0.8618
2608	0.8636
2599	0.8652
2590	0.8665
2581	0.8675
2572	0.8681
2563	0.8684
2554	0.8688
2545	0.8694
2536	0.87
2527	0.8706
2518	0.8695
2509	0.867
2500	0.8583
2491	0.8523
2482	0.8515
2473	0.8513
2464	0.852
2455	0.8524
2446	0.8525
2437	0.8509
2428	0.8495
2419	0.8488
2410	0.8494
2401	0.8502
2392	0.8515
2383	0.8518
2374	0.8515
2365	0.8498
2356	0.8471
2347	0.8428
2338	0.8424
2329	0.8425
2320	0.8431
2311	0.8436
2302	0.844
2293	0.8445
2284	0.845
2275	0.846
2266	0.8473
2257	0.8487
2248	0.8509
2239	0.8548
2230	0.8598
2221	0.8612
2212	0.8624
2203	0.864
2194	0.8665
2185	0.8717
2176	0.8774
2167	0.8828
2158	0.8854
2149	0.8838
2140	0.882
2131	0.8817
2122	0.8835
2113	0.889
2104	0.8937
2095	0.8964
2086	0.899
2077	0.9015
2068	0.8981
2059	0.9
2050	0.9033
2041	0.9077
2032	0.9075
2023	0.9071
2014	0.9068
2005	0.9052
1996	0.8874
1987	0.8805
1978	0.8875
1969	0.8845
1960	0.8861
1951	0.8836
1942	0.8739
1933	0.8451
1924	0.8406
1915	0.8586
1906	0.8754
1897	0.8792
1888	0.8795
1879	0.8755
1870	0.8717
1861	0.8596
1852	0.8482
1843	0.8421
1834	0.8367
1825	0.8218
1816	0.8065
1807	0.7882
1798	0.7683
1789	0.7432
1780	0.7139
1771	0.6632
1762	0.6268
1753	0.5579
1744	0.4846
1735	0.402
1726	0.3156
1717	0.1998
1708	0.1237
1699	0.0349
1690	0.0178
1681	0.0344
1672	0.0808
1663	0.1489
1654	0.219
1645	0.2892
1636	0.3228
1627	0.2893
1618	0.1016
1609	0.1724
1600	0.3577
1591	0.4566
1582	0.5344
1573	0.6018
1564	0.6455
1555	0.6711
1546	0.6891
1537	0.6951
1528	0.6978
1519	0.694
1510	0.6805
1501	0.6548
1492	0.6087
1483	0.3262
1474	0.4788
1465	0.4309
1456	0.4323
1447	0.2702
1438	0.2896
1429	0.0902
1420	0.1931
1411	0.4
1402	0.5736
1393	0.3992
1384	0.0893
1375	0.3046
1366	0.5692
1357	0.4577
1348	0.0548
1339	0.0861
1330	0.1882
1321	0.2804
1312	0.3848
1303	0.4642
1294	0.5222
1285	0.5522
1276	0.5501
1267	0.5607
1258	0.5623
1249	0.554
1240	0.5487
1231	0.5509
1222	0.5528
1213	0.5524
1204	0.5491
1195	0.5458
1186	0.5425
1177	0.5321
1168	0.515
1159	0.4568
1150	0.4629
1141	0.4316
1132	0.3834
1123	0.456
1114	0.3796
1105	0.2939
1096	0.2306
1087	0.0833
1078	0.0551
1069	0.1383
1060	0.2906
1051	0.4456
1042	0.5539
1033	0.6192
1024	0.6632
1015	0.7082
1006	0.7225
997	0.5577
988	0.7007
979	0.7833
970	0.7911
961	0.8046
952	0.8202
943	0.8335
934	0.8447
925	0.8547
916	0.8625
907	0.867
898	0.8694
889	0.8727
880	0.8736
871	0.8686
862	0.8083
853	0.7181
844	0.848
835	0.8587
826	0.856
817	0.8475
808	0.8259
799	0.7791
790	0.5234
781	0.8448
772	0.8689
763	0.8646
754	0.8575
745	0.839
736	0.8118
727	0.758
718	0.7201
709	0.7234
700	0.7439
691	0.7374
682	0.6358
673	0.7388
664	0.7258
655	0.6789
646	0.6253
637	0.5716
628	0.518
619	0.5099
610	0.5294
601	0.5657
592	0.6134
583	0.6615
574	0.7098
565	0.7581
556	0.7914
547	0.8128
538	0.8169
529	0.7572
520	0.5753
511	0.8268
502	0.846
493	0.8432
484	0.831
475	0.8148
466	0.8004
457	0.7806
448	0.7535
439	0.7185
430	0.6821
421	0.665
412	0.6642
403	0.6843
