Infrared Spectrum: PROPARGYL ALCOHOL
Formula: C3 H4 O
CAS: 107-19-7
Class: COBLENTZ
Instrument: Not specified, most likely a prism, grating, or hybrid spectrometer.
Sampling: TRANSMISSION
Path length: FILM
Resolution: 4
MICROMETERS	TRANSMITTANCE
2.133	1.011
2.17282	1.011
2.21263	1.016
2.25245	1.016
2.29226	1.018
2.33208	1.016
2.37189	1.001
2.41171	1
2.45152	1.003
2.49134	1.004
2.53115	1.001
2.57097	0.98
2.61078	0.961
2.6506	0.98
2.69041	0.995
2.73023	1.001
2.77004	0.99
2.80986	0.811
2.84967	0.455
2.88949	0.347
2.9293	0.236
2.96912	0.157
3.00893	0.091
3.04875	0.069
3.08856	0.059
3.12838	0.041
3.1682	0.062
3.20801	0.203
3.24783	0.349
3.28764	0.496
3.32746	0.599
3.36727	0.668
3.40709	0.725
3.4469	0.69
3.48672	0.425
3.52653	0.46
3.56635	0.586
3.60616	0.715
3.64598	0.788
3.68579	0.817
3.72561	0.837
3.76542	0.85
3.80524	0.86
3.84505	0.86
3.88487	0.862
3.92468	0.918
3.9645	0.94
4.00431	0.95
4.04413	0.971
4.08395	0.985
4.12376	0.988
4.16358	0.963
4.20339	0.951
4.24321	0.953
4.28302	0.971
4.32284	0.988
4.36265	1
4.40247	1.008
4.44228	1.018
4.4821	1.013
4.52191	1.009
4.56173	1.004
4.60154	1.003
4.64136	1.008
4.68117	1.008
4.72099	0.963
4.7608	0.748
4.80062	0.98
4.84043	0.981
4.88025	0.968
4.92006	0.95
4.95988	0.97
4.99969	0.981
5.03951	1.008
5.07933	1.006
5.11914	1
5.15896	0.995
5.19877	0.993
5.23859	1.008
5.2784	1.008
5.31822	1.009
5.35803	0.99
5.39785	1.003
5.43766	1.018
5.47748	1.009
5.51729	1.004
5.55711	1.006
5.59692	1.006
5.63674	0.991
5.67655	1.001
5.71637	0.993
5.75618	0.998
5.796	0.995
5.83581	0.988
5.87563	0.99
5.91544	0.991
5.95526	0.98
5.99508	0.976
6.03489	0.961
6.07471	0.963
6.11452	0.942
6.15434	0.938
6.19415	0.935
6.23397	0.935
6.27378	0.927
6.3136	0.922
6.35341	0.917
6.39323	0.912
6.43304	0.908
6.47286	0.9
6.51267	0.892
6.55249	0.88
6.5923	0.864
6.63212	0.841
6.67193	0.802
6.71175	0.753
6.75156	0.668
6.79138	0.587
6.83119	0.503
6.87101	0.405
6.91082	0.395
6.95064	0.407
6.99046	0.39
7.03027	0.379
7.07009	0.374
7.1099	0.385
7.14972	0.397
7.18953	0.408
7.22935	0.42
7.26916	0.44
7.30898	0.428
7.34879	0.407
7.38861	0.442
7.42842	0.498
7.46824	0.526
7.50805	0.529
7.54787	0.529
7.58768	0.528
7.6275	0.521
7.66731	0.514
7.70713	0.514
7.74694	0.521
7.78676	0.546
7.82657	0.571
7.86639	0.599
7.90621	0.609
7.94602	0.622
7.98584	0.627
8.02565	0.594
8.06547	0.528
8.10528	0.498
8.1451	0.5
8.18491	0.559
8.22473	0.614
8.26454	0.653
8.30436	0.711
8.34417	0.75
8.38399	0.779
8.4238	0.809
8.46362	0.816
8.50343	0.829
8.54325	0.839
8.58306	0.852
8.62288	0.855
8.66269	0.86
8.70251	0.862
8.74232	0.862
8.78214	0.855
8.82195	0.841
8.86177	0.836
8.90159	0.824
8.9414	0.799
8.98122	0.784
9.02103	0.779
9.06085	0.774
9.10066	0.793
9.14048	0.791
9.18029	0.783
9.22011	0.773
9.25992	0.758
9.29974	0.73
9.33955	0.683
9.37937	0.629
9.41918	0.513
9.459	0.349
9.49881	0.177
9.53863	0.071
9.57844	0.039
9.61826	0.029
9.65807	0.029
9.69789	0.026
9.7377	0.026
9.77752	0.033
9.81734	0.064
9.85715	0.13
9.89697	0.248
9.93678	0.349
9.9766	0.44
10.0164	0.501
10.0562	0.513
10.096	0.488
10.1359	0.443
10.1757	0.428
10.2155	0.445
10.2553	0.488
10.2951	0.548
10.3349	0.602
10.3747	0.653
10.4146	0.688
10.4544	0.718
10.4942	0.738
10.534	0.748
10.5738	0.753
10.6136	0.753
10.6535	0.746
10.6933	0.723
10.7331	0.68
10.7729	0.6
10.8127	0.456
10.8525	0.314
10.8923	0.231
10.9322	0.259
10.972	0.375
11.0118	0.531
11.0516	0.64
11.0914	0.715
11.1312	0.764
11.1711	0.788
11.2109	0.817
11.2507	0.826
11.2905	0.842
11.3303	0.855
11.3701	0.86
11.4099	0.862
11.4498	0.864
11.4896	0.864
11.5294	0.859
11.5692	0.86
11.609	0.864
11.6488	0.869
11.6886	0.859
11.7285	0.854
11.7683	0.85
11.8081	0.846
11.8479	0.841
11.8877	0.839
11.9275	0.834
11.9674	0.827
12.0072	0.826
12.047	0.822
12.0868	0.816
12.1266	0.811
12.1664	0.804
12.2062	0.801
12.2461	0.794
12.2859	0.788
12.3257	0.778
12.3655	0.774
12.4053	0.771
12.4451	0.763
12.485	0.751
12.5248	0.74
12.5646	0.735
12.6044	0.728
12.6442	0.723
12.684	0.711
12.7238	0.703
12.7637	0.698
12.8035	0.685
12.8433	0.675
12.8831	0.667
12.9229	0.66
12.9627	0.65
13.0026	0.645
13.0424	0.634
13.0822	0.627
13.122	0.619
13.1618	0.61
13.2016	0.594
13.2414	0.587
13.2813	0.577
13.3211	0.564
13.3609	0.556
13.4007	0.541
13.4405	0.529
13.4803	0.518
13.5201	0.503
13.56	0.493
13.5998	0.485
13.6396	0.463
13.6794	0.453
13.7192	0.445
13.759	0.427
13.7989	0.413
13.8387	0.399
13.8785	0.382
13.9183	0.365
13.9581	0.352
13.9979	0.341
14.0377	0.324
14.0776	0.306
14.1174	0.294
14.1572	0.271
14.197	0.261
14.2368	0.251
14.2766	0.24
14.3165	0.228
14.3563	0.211
14.3961	0.201
14.4359	0.193
14.4757	0.192
14.5155	0.18
14.5553	0.17
14.5952	0.165
14.635	0.162
14.6748	0.16
14.7146	0.158
14.7544	0.153
14.7942	0.152
14.8341	0.153
14.8739	0.153
14.9137	0.173
14.9535	0.2
14.9933	0.193
15.0331	0.163
15.0729	0.16
15.1128	0.16
15.1526	0.168
15.1924	0.177
15.2322	0.183
15.272	0.192
15.3118	0.198
15.3516	0.205
15.3915	0.215
15.4313	0.216
15.4711	0.226
15.5109	0.235
15.5507	0.241
15.5905	0.248
15.6304	0.259
15.6702	0.276
15.71	0.294
15.7498	0.311
15.7896	0.329
15.8294	0.35
15.8692	0.367
15.9091	0.385
15.9489	0.402
15.9887	0.423
