Infrared Spectrum: 2-Propyn-1-ol
Formula: C 3 H 4 O
CAS: 107-19-7
State: gas
Origin: Sadtler Research Labs Under US-EPA Contract
1/CM	ABSORBANCE
450	0.0164547
462	0.0179693
474	0.0198971
486	0.0218248
498	0.0254738
510	0.0366271
522	0.0499148
534	0.0573504
546	0.0384172
558	0.0585208
570	0.0488132
582	0.0481248
594	0.0594847
606	0.0800014
618	0.163583
630	0.364344
642	0.47574
654	0.518907
666	0.202
678	0.118556
690	0.0627894
702	0.023546
714	0.00943218
726	0.00757328
738	0.00647171
750	0.0067471
762	0.00571438
774	0.00302931
786	0.00213429
798	0.00371779
810	0.00282277
822	0.00612747
834	0.00777982
846	0.0141138
858	0.0251984
870	0.0404826
882	0.065681
894	0.0879877
906	0.0725658
918	0.110294
930	0.0790375
942	0.0616878
954	0.0568684
966	0.058452
978	0.0771786
990	0.109675
1002	0.197043
1014	0.410678
1026	0.68848
1038	0.593883
1050	0.597945
1062	0.272087
1074	0.112016
1086	0.0740116
1098	0.0487444
1110	0.0446135
1122	0.0320143
1134	0.0291916
1146	0.0340798
1158	0.0371779
1170	0.0345617
1182	0.035319
1194	0.0394499
1206	0.0528753
1218	0.0700873
1230	0.10279
1242	0.123995
1254	0.117179
1266	0.124546
1278	0.110363
1290	0.108711
1302	0.0973511
1314	0.07112
1326	0.0615501
1338	0.0667137
1350	0.0962495
1362	0.135699
1374	0.200485
1386	0.226785
1398	0.212947
1410	0.161035
1422	0.0778671
1434	0.0360764
1446	0.0243722
1458	0.0218248
1470	0.0138384
1482	0.0134942
1494	0.00936333
1506	0.00998296
1518	0.00633402
1530	0.00351125
1542	0.00681595
1554	0.00440627
1566	0.00261622
1578	0.00399318
1590	0.00179005
1602	0.00192774
1614	0.00103272
1626	0.00103272
1638	0.00220314
1650	0.00151466
1662	0.000963872
1674	0.0017212
1686	0.00488821
1698	0.00468166
1710	0.00364894
1722	0.00316701
1734	0.00722904
1746	0.0111534
1758	0.0113599
1770	0.0100518
1782	0.00454397
1794	0.00337355
1806	0.00130811
1818	0.000826176
1830	0.000826176
1842	0.000206544
1854	0
1866	0.000550784
1878	0
1890	0.00103272
1902	0.000619632
1914	0.00117042
1926	0.00234083
1938	0.00282277
1950	0.00282277
1962	0.00254738
1974	0.00144581
1986	0.0017212
1998	0.00206544
2010	0.00261622
2022	0.00364894
2034	0.00633402
2046	0.00950102
2058	0.0107403
2070	0.00936333
2082	0.00833061
2094	0.00592093
2106	0.00750443
2118	0.00853715
2130	0.00716019
2142	0.00619632
2154	0.00261622
2166	0.00137696
2178	0.00144581
2190	0.00144581
2202	0.00206544
2214	0.00227198
2226	0.00247853
2238	0.00254738
2250	0.00254738
2262	0.00268507
2274	0.00302931
2286	0.00296046
2298	0.00351125
2310	0.00406203
2322	0.00406203
2334	0.00440627
2346	0.00440627
2358	0.00399318
2370	0.00660941
2382	0.00598978
2394	0.00447512
2406	0.00447512
2418	0.00454397
2430	0.00461282
2442	0.00447512
2454	0.00392434
2466	0.00302931
2478	0.0034424
2490	0.00351125
2502	0.00351125
2514	0.00399318
2526	0.0034424
2538	0.00371779
2550	0.00392434
2562	0.00392434
2574	0.00399318
2586	0.00399318
2598	0.00399318
2610	0.00433742
2622	0.00392434
2634	0.00488821
2646	0.00488821
2658	0.00543899
2670	0.00729789
2682	0.00743558
2694	0.00695365
2706	0.00640286
2718	0.00640286
2730	0.0068848
2742	0.00695365
2754	0.00833061
2766	0.00881254
2778	0.00984526
2790	0.010396
2802	0.0125303
2814	0.0155596
2826	0.0213429
2838	0.0299489
2850	0.0427546
2862	0.059347
2874	0.0822734
2886	0.0914301
2898	0.100656
2910	0.113668
2922	0.114357
2934	0.120553
2946	0.107196
2958	0.0930136
2970	0.0736674
2982	0.0479871
2994	0.0278834
3006	0.0156973
3018	0.008606
3030	0.00468166
3042	0.00351125
3054	0.00296046
3066	0.00337355
3078	0.00247853
3090	0.00234083
3102	0.00206544
3114	0.00247853
3126	0.00254738
3138	0.00227198
3150	0.00192774
3162	0.0015835
3174	0.00199659
3186	0.0015835
3198	0.0017212
3210	0.0015835
3222	0.00151466
3234	0.00261622
3246	0.00364894
3258	0.00626517
3270	0.0122549
3282	0.0275392
3294	0.0680218
3306	0.132257
3318	0.301003
3330	0.260521
3342	0.291227
3354	0.0929448
3366	0.0183824
3378	0.0118419
3390	0.00771098
3402	0.00488821
3414	0.0050259
3426	0.0034424
3438	0.00351125
3450	0.00481936
3462	0.00543899
3474	0.00578323
3486	0.00647171
3498	0.00647171
3510	0.00812406
3522	0.00695365
3534	0.00598978
3546	0.00695365
3558	0.00640286
3570	0.00936333
3582	0.00929448
3594	0.0132188
3606	0.0204479
3618	0.0327716
3630	0.0512918
3642	0.0824111
3654	0.101138
3666	0.0886074
3678	0.103892
3690	0.0658875
3702	0.0400695
3714	0.0247853
3726	0.0150777
3738	0.0123238
3750	0.0112222
3762	0.00833061
3774	0.00750443
3786	0.00750443
3798	0.00881254
3810	0.010396
3822	0.010396
3834	0.0107403
3846	0.0108091
3858	0.0114288
3870	0.010396
3882	0.00929448
3894	0.00936333
3906	0.010396
3918	0.010396
3930	0.00936333
3942	0.00950102
3954	0.000619632
3966	0.00151466
