Infrared Spectrum: Ethylenediamine
Formula: C 2 H 8 N 2
CAS: 107-15-3
State: gas
Origin: Sadtler Research Labs Under US-EPA Contract
1/CM	ABSORBANCE
450	0.0389947
462	0.0111414
474	0.0665442
486	0.060771
498	0.0728239
510	0.0622903
522	0.0280559
534	0.0199531
546	0.0088118
558	0.00182313
570	0.00891308
582	0.0108375
594	0.0182313
606	0.0281572
618	0.0349433
630	0.0397037
642	0.0583402
654	0.0681648
666	0.084573
678	0.117491
690	0.153649
702	0.228195
714	0.32948
726	0.481509
738	0.696638
750	0.913287
762	0.999886
774	1.01285
786	0.892422
798	0.727834
810	0.59039
822	0.437146
834	0.315604
846	0.290182
858	0.283395
870	0.273875
882	0.233462
894	0.145344
906	0.105742
918	0.0761663
930	0.0631006
942	0.060771
954	0.0692789
966	0.0756599
978	0.0716085
990	0.065025
1002	0.0666455
1014	0.0922706
1026	0.117592
1038	0.151117
1050	0.155472
1062	0.133494
1074	0.0994619
1086	0.0735329
1098	0.0708995
1110	0.0703931
1122	0.0444641
1134	0.0208647
1146	0.00708995
1158	0.00182313
1170	0
1182	0.000911565
1194	0.00182313
1206	0.00253213
1218	0.00263341
1230	0.00364626
1242	0.0060771
1254	0.0094195
1266	0.0140786
1278	0.021675
1290	0.0283598
1302	0.0325125
1314	0.035551
1326	0.0417294
1338	0.0704944
1350	0.103513
1362	0.125492
1374	0.121137
1386	0.0936886
1398	0.0557067
1410	0.0350446
1422	0.0280559
1434	0.0290688
1446	0.0519592
1458	0.0722162
1470	0.0786984
1482	0.0683674
1494	0.0493258
1506	0.0375767
1518	0.0379819
1530	0.0393999
1542	0.039096
1554	0.0453757
1566	0.059353
1578	0.0858897
1590	0.135317
1602	0.216952
1614	0.289776
1626	0.297069
1638	0.249769
1650	0.152333
1662	0.0802177
1674	0.0437551
1686	0.02522
1698	0.0135722
1710	0.00931822
1722	0.00820408
1734	0.00860922
1746	0.00871051
1758	0.00749509
1770	0.00850794
1782	0.00962208
1794	0.0122555
1806	0.0134709
1818	0.0121542
1830	0.0124581
1842	0.0111414
1854	0.00871051
1866	0.00749509
1878	0.00577324
1890	0.00496296
1902	0.0040514
1914	0.00344369
1926	0.00243084
1938	0.00212699
1950	0.00151928
1962	0.00111414
1974	0.00111414
1986	0.00172185
1998	0.00192442
2010	0.00162056
2022	0.00162056
2034	0.00192442
2046	0.00232956
2058	0.00263341
2070	0.00293727
2082	0.00283598
2094	0.00293727
2106	0.00263341
2118	0.00283598
2130	0.00253213
2142	0.0020257
2154	0.00151928
2166	0.00121542
2178	0.00101285
2190	0.00121542
2202	0.000911565
2214	0.000708995
2226	0.00101285
2238	0.00060771
2250	0.000303855
2262	0.00020257
2274	0.00040514
2286	0.000708995
2298	0.00222827
2310	0.00334241
2322	0.00374755
2334	0.00313984
2346	0.0027347
2358	0.00334241
2370	0.00182313
2382	0.00172185
2394	0
2406	0.00040514
2418	0.000911565
2430	0.00131671
2442	0.00192442
2454	0.0020257
2466	0.0020257
2478	0.00243084
2490	0.00232956
2502	0.00253213
2514	0.00263341
2526	0.00313984
2538	0.0040514
2550	0.00546939
2562	0.00638096
2574	0.00749509
2586	0.0088118
2598	0.0105336
2610	0.0112426
2622	0.0140786
2634	0.0180287
2646	0.0224853
2658	0.0282585
2670	0.0344369
2682	0.0409191
2694	0.0476039
2706	0.0561119
2718	0.0666455
2730	0.0731278
2742	0.078901
2754	0.0763689
2766	0.0761663
2778	0.0827498
2790	0.103209
2802	0.144129
2814	0.209356
2826	0.306995
2838	0.427018
2850	0.53519
2862	0.591302
2874	0.587554
2886	0.557776
2898	0.565272
2910	0.634956
2922	0.775944
2934	0.80552
2946	0.718313
2958	0.540254
2970	0.319655
2982	0.163069
2994	0.0749509
3006	0.0349433
3018	0.0192442
3030	0.0123568
3042	0.0094195
3054	0.00769766
3066	0.00648224
3078	0.00597582
3090	0.00465911
3102	0.00364626
3114	0.00344369
3126	0.0027347
3138	0.0027347
3150	0.00303855
3162	0.00313984
3174	0.00435526
3186	0.00364626
3198	0.00364626
3210	0.00395012
3222	0.00415268
3234	0.00455782
3246	0.00415268
3258	0.00374755
3270	0.00253213
3282	0.00303855
3294	0.00364626
3306	0.00425397
3318	0.0094195
3330	0.0190416
3342	0.0262328
3354	0.0276508
3366	0.0250174
3378	0.0184339
3390	0.0189403
3402	0.0241058
3414	0.026638
3426	0.0233968
3438	0.016712
3450	0.00962208
3462	0.00708995
3474	0.00324112
3486	0.00303855
3498	0.00081028
3510	0.0027347
3522	0.00263341
3534	0.00172185
3546	0.00303855
3558	0.00313984
3570	0.00627967
3582	0.00192442
3594	0.00587453
3606	0.00162056
3618	0.00313984
3630	0.00567196
3642	0.00293727
3654	0.00334241
3666	0.00081028
3678	0.00303855
3690	0.00131671
3702	0.00313984
3714	0.00313984
3726	0.0047604
3738	0.00283598
3750	0.00182313
3762	0.0020257
3774	0.00162056
3786	0.00243084
3798	0
3810	0
3822	0.00121542
3834	0.00081028
3846	0.00081028
3858	0.0040514
3870	0.00384883
3882	0.00354498
3894	0.00577324
3906	0.00617838
3918	0.00759638
3930	0.00506425
3942	0.0067861
3954	0.0047604
3966	0.00486168
