Infrared Spectrum: Ethylene diamine
Formula: C2 H8 N2
CAS: 107-15-3
State: SOLUTION (11% CCl4 FOR 3800-1000, 6% CS2 FOR 1000-650, AND 11% CCl4 FOR 650-250)
Boiling point: 117 C
Class: COBLENTZ III
Instrument: PERKIN-ELMER 521 (GRATING)
Instrument parameters: FILTERS AT 3150, 2500, 2000, 1150, 700, 410. GRATING CHANGES: 2000, 630
Path length: 0.011 CM, 0.011 CM, AND 0.011 CM
Resolution: 2
Origin: DOW CORNING CORP.
1/CM	TRANSMITTANCE
246	0.3925
255	0.3832
264	0.3789
273	0.3776
282	0.3782
291	0.3962
300	0.4174
309	0.4326
318	0.4462
327	0.4416
336	0.4379
345	0.4448
354	0.4665
363	0.5046
372	0.5473
381	0.5753
390	0.6067
399	0.6313
408	0.6499
417	0.6591
426	0.6639
435	0.6691
444	0.6709
453	0.6615
462	0.6571
471	0.6566
480	0.6564
489	0.5856
498	0.4936
507	0.4708
516	0.5913
525	0.668
534	0.7138
543	0.7259
552	0.7324
561	0.7373
570	0.7353
579	0.7316
588	0.728
597	0.727
606	0.7253
615	0.7233
624	0.6984
633	0.6732
642	0.6654
651	0.8063
660	0.9245
669	0.9056
678	0.8871
687	0.8771
696	0.8605
705	0.8367
714	0.8112
723	0.771
732	0.7254
741	0.6688
750	0.5854
759	0.4894
768	0.423
777	0.4523
786	0.4807
795	0.4714
804	0.4475
813	0.4724
822	0.5589
831	0.6155
840	0.6306
849	0.6262
858	0.5902
867	0.5582
876	0.6026
885	0.6319
894	0.6528
903	0.6748
912	0.7086
921	0.7249
930	0.7383
939	0.7496
948	0.7538
957	0.7511
966	0.7549
975	0.7657
984	0.7712
993	0.7726
1002	0.635
1011	0.5626
1020	0.5411
1029	0.4816
1038	0.4743
1047	0.445
1056	0.5006
1065	0.6344
1074	0.6282
1083	0.5903
1092	0.4836
1101	0.5496
1110	0.6286
1119	0.6763
1128	0.7071
1137	0.72
1146	0.7255
1155	0.7329
1164	0.7436
1173	0.751
1182	0.7514
1191	0.7681
1200	0.7755
1209	0.778
1218	0.7836
1227	0.7826
1236	0.779
1245	0.7763
1254	0.7713
1263	0.7516
1272	0.7226
1281	0.6854
1290	0.6519
1299	0.6386
1308	0.6475
1317	0.6618
1326	0.6672
1335	0.66
1344	0.6165
1353	0.5153
1362	0.5272
1371	0.5511
1380	0.6099
1389	0.6438
1398	0.6835
1407	0.7375
1416	0.7336
1425	0.7132
1434	0.6801
1443	0.6243
1452	0.5314
1461	0.5079
1470	0.5888
1479	0.6162
1488	0.6325
1497	0.6304
1506	0.6257
1515	0.6114
1524	0.5856
1533	0.554
1542	0.512
1551	0.4679
1560	0.413
1569	0.366
1578	0.3269
1587	0.3092
1596	0.2973
1605	0.2898
1614	0.2882
1623	0.3168
1632	0.3999
1641	0.4879
1650	0.5642
1659	0.6288
1668	0.6756
1677	0.7139
1686	0.7497
1695	0.77
1704	0.7823
1713	0.804
1722	0.8217
1731	0.8376
1740	0.8462
1749	0.8508
1758	0.8549
1767	0.8558
1776	0.8551
1785	0.8537
1794	0.8519
1803	0.8502
1812	0.8485
1821	0.8464
1830	0.8435
1839	0.8407
1848	0.8394
1857	0.8389
1866	0.8388
1875	0.839
1884	0.84
1893	0.8416
1902	0.8432
1911	0.846
1920	0.8485
1929	0.8497
1938	0.8506
1947	0.8547
1956	0.8587
1965	0.8611
1974	0.862
1983	0.8618
1992	0.8621
2001	0.8695
2010	0.8776
2019	0.8782
2028	0.8777
2037	0.877
2046	0.8768
2055	0.8763
2064	0.875
2073	0.8737
2082	0.8731
2091	0.8725
2100	0.8716
2109	0.8708
2118	0.8706
2127	0.8705
2136	0.8704
2145	0.8702
2154	0.8701
2163	0.8699
2172	0.8697
2181	0.8694
2190	0.8692
2199	0.8689
2208	0.8687
2217	0.8685
2226	0.8683
2235	0.8681
2244	0.8685
2253	0.8694
2262	0.87
2271	0.8703
2280	0.8697
2289	0.8688
2298	0.8678
2307	0.8663
2316	0.8649
2325	0.8638
2334	0.8627
2343	0.8616
2352	0.8603
2361	0.859
2370	0.8577
2379	0.8563
2388	0.855
2397	0.8536
2406	0.8523
2415	0.8509
2424	0.8494
2433	0.8475
2442	0.8456
2451	0.8437
2460	0.8419
2469	0.8401
2478	0.8382
2487	0.8364
2496	0.8345
2505	0.8327
2514	0.8305
2523	0.8264
2532	0.8214
2541	0.814
2550	0.8075
2559	0.806
2568	0.8052
2577	0.8015
2586	0.7949
2595	0.7887
2604	0.7833
2613	0.7785
2622	0.774
2631	0.7657
2640	0.7525
2649	0.7412
2658	0.727
2667	0.7112
2676	0.6993
2685	0.6895
2694	0.6873
2703	0.6773
2712	0.6532
2721	0.5982
2730	0.5927
2739	0.5936
2748	0.6072
2757	0.6088
2766	0.6026
2775	0.5923
2784	0.5761
2793	0.55
2802	0.5152
2811	0.4422
2820	0.355
2829	0.2276
2838	0.1223
2847	0.0759
2856	0.0754
2865	0.0904
2874	0.1725
2883	0.2325
2892	0.2205
2901	0.1616
2910	0.1107
2919	0.063
2928	0.0536
2937	0.0554
2946	0.0754
2955	0.1595
2964	0.3346
2973	0.4721
2982	0.5688
2991	0.6237
3000	0.6756
3009	0.6944
3018	0.7028
3027	0.7085
3036	0.7112
3045	0.7134
3054	0.7171
3063	0.7114
3072	0.7096
3081	0.7071
3090	0.7038
3099	0.7005
3108	0.6957
3117	0.6871
3126	0.6764
3135	0.6654
3144	0.6531
3153	0.6398
3162	0.6251
3171	0.6091
3180	0.5956
3189	0.5844
3198	0.5784
3207	0.5736
3216	0.5688
3225	0.5635
3234	0.5577
3243	0.5494
3252	0.5371
3261	0.5174
3270	0.4925
3279	0.4632
3288	0.4396
3297	0.4222
3306	0.4175
3315	0.4217
3324	0.4321
3333	0.4576
3342	0.4813
3351	0.4826
3360	0.4729
3369	0.4534
3378	0.4009
3387	0.3528
3396	0.3511
3405	0.3915
3414	0.4582
3423	0.5785
3432	0.6295
3441	0.6643
3450	0.6856
3459	0.6934
3468	0.7187
3477	0.7292
3486	0.7426
3495	0.7567
3504	0.7694
3513	0.7807
3522	0.7897
3531	0.7991
3540	0.8092
3549	0.8192
3558	0.8249
3567	0.8379
3576	0.8449
3585	0.852
3594	0.859
3603	0.8547
3612	0.8586
3621	0.8632
3630	0.8658
3639	0.8662
3648	0.8667
3657	0.8678
3666	0.8637
3675	0.8475
3684	0.8481
3693	0.8615
3702	0.8782
3711	0.8863
3720	0.889
3729	0.8908
3738	0.8925
3747	0.8943
3756	0.8974
3765	0.8941
3774	0.8905
3783	0.8907
3792	0.8912
3801	0.8916
