Infrared Spectrum: 3-Pentyn-1-ol
Formula: C 5 H 8 O
CAS: 10229-10-4
State: gas
Instrument: HP-GC/MS/IRD
Origin: NIST Mass Spectrometry Data Center
1/CM	ABSORBANCE
550	0.0010512
562	0.0007128
574	0.0006426
586	0.0003384
598	0.0003942
610	0.000324
622	0.0002826
634	0.0002916
646	0.000216
658	4.32e-05
670	0.0002394
682	0.0002808
694	0.0002178
706	0.0002718
718	0.0002538
730	0.000144
742	0.000189
754	0.0001548
766	0.0002214
778	0.0002826
790	0.0003132
802	0.0003582
814	0.000387
826	0.000567
838	0.0009
850	0.0010908
862	0.001062
874	0.000693
886	0.0004158
898	0.0005112
910	0.000747
922	0.0009396
934	0.0010224
946	0.0009306
958	0.00081
970	0.0010098
982	0.001557
994	0.0023922
1006	0.0033876
1018	0.0054072
1030	0.0109224
1042	0.017046
1054	0.0167436
1066	0.0107028
1078	0.0061002
1090	0.0030294
1102	0.0015084
1114	0.001116
1126	0.0011196
1138	0.0012384
1150	0.0012384
1162	0.0012528
1174	0.0017244
1186	0.002016
1198	0.0022284
1210	0.0019674
1222	0.0017046
1234	0.0015048
1246	0.0013968
1258	0.0012564
1270	0.0013392
1282	0.0015642
1294	0.0017694
1306	0.0019944
1318	0.002484
1330	0.0030636
1342	0.0031338
1354	0.002844
1366	0.0033192
1378	0.0044154
1390	0.0045648
1402	0.0038052
1414	0.003105
1426	0.002556
1438	0.0021654
1450	0.001719
1462	0.001602
1474	0.0013266
1486	0.001197
1498	0.001116
1510	0.0008694
1522	0.0006696
1534	0.0005868
1546	0.0005418
1558	0.000387
1570	0.0003564
1582	0.000306
1594	0.0002394
1606	0.0001854
1618	0.0001872
1630	0.0001404
1642	0.0001116
1654	0.0001008
1666	9.54e-05
1678	8.1e-05
1690	6.48e-05
1702	5.22e-05
1714	3.96e-05
1726	4.68e-05
1738	1.8e-05
1750	4.14e-05
1762	5.58e-05
1774	4.32e-05
1786	4.32e-05
1798	3.24e-05
1810	5.04e-05
1822	4.5e-05
1834	7.02e-05
1846	3.96e-05
1858	5.04e-05
1870	7.02e-05
1882	8.28e-05
1894	0.0001206
1906	0.000135
1918	9.18e-05
1930	7.02e-05
1942	1.98e-05
1954	1.8e-05
1966	1.8e-05
1978	3.6e-05
1990	3.78e-05
2002	3.96e-05
2014	3.96e-05
2026	7.2e-05
2038	0.0001422
2050	0.0001944
2062	0.0002304
2074	0.0002142
2086	0.0001872
2098	0.0001692
2110	0.0001278
2122	8.28e-05
2134	5.58e-05
2146	1.8e-05
2158	9e-06
2170	3.24e-05
2182	3.06e-05
2194	5.04e-05
2206	6.12e-05
2218	9.72e-05
2230	0.0001314
2242	8.28e-05
2254	5.4e-05
2266	5.58e-05
2278	2.16e-05
2290	5.4e-05
2302	6.66e-05
2314	6.66e-05
2326	3.78e-05
2338	1.62e-05
2350	5.94e-05
2362	4.68e-05
2374	5.4e-05
2386	0.0001116
2398	9.54e-05
2410	0.0001494
2422	0.000153
2434	0.0001422
2446	0.000117
2458	0.0001098
2470	0.0001314
2482	0.0001386
2494	0.0001602
2506	0.000135
2518	0.0001404
2530	0.000144
2542	0.0001278
2554	0.0001026
2566	0.0001188
2578	8.28e-05
2590	9.54e-05
2602	7.92e-05
2614	0.0001422
2626	0.000135
2638	0.000189
2650	0.0001926
2662	0.000207
2674	0.000243
2686	0.00027
2698	0.0002754
2710	0.0003654
2722	0.0004248
2734	0.0005238
2746	0.0007218
2758	0.0007398
2770	0.0006048
2782	0.0005868
2794	0.000675
2806	0.0007704
2818	0.0010476
2830	0.0014724
2842	0.0021258
2854	0.0032184
2866	0.0051354
2878	0.0070776
2890	0.0076518
2902	0.0073008
2914	0.0086166
2926	0.0125136
2938	0.013554
2950	0.0115146
2962	0.0085104
2974	0.0066672
2986	0.0043146
2998	0.0023652
3010	0.0018396
3022	0.0012312
3034	0.0011772
3046	0.0008838
3058	0.000738
3070	0.000648
3082	0.0004914
3094	0.0003942
3106	0.0003096
3118	0.0001962
3130	0.0001944
3142	0.0001458
3154	9.54e-05
3166	0.0001116
3178	4.68e-05
3190	0.0001134
3202	0.000108
3214	7.38e-05
3226	7.56e-05
3238	7.02e-05
3250	3.78e-05
3262	9.72e-05
3274	0.0001314
3286	0.000117
3298	0.0001044
3310	0.0001152
3322	0.0001746
3334	0.0001656
3346	0.0001638
3358	0.0001656
3370	6.48e-05
3382	6.66e-05
3394	9e-05
3406	5.94e-05
3418	0.000153
3430	0.0001224
3442	0.0001818
3454	0.000171
3466	0.0001746
3478	0.0001764
3490	0.0001782
3502	0.0001116
3514	0.0001332
3526	0.0002934
3538	0.0003582
3550	0.0002988
3562	0.0002394
3574	0.0002646
3586	0.0003132
3598	0.0006984
3610	0.0021834
3622	0.0024012
3634	0.0017154
3646	0.0012366
3658	0.001656
3670	0.0020016
3682	0.0014472
3694	0.000729
3706	0.0004572
3718	0.0002304
3730	0.0001962
3742	0.0001278
3754	0.0001548
3766	4.5e-05
3778	5.22e-05
3790	4.32e-05
3802	6.12e-05
3814	3.78e-05
3826	0.0001008
3838	0.0001188
