Infrared Spectrum: UREA
Formula: C H4 N2 O
CAS: 57-13-6
State: SOLID (SPLIT MULL, FLUOROLUBE FOR 3800-1333 AND NUJOL FOR 1333-450 CM ^-^1)
Class: COBLENTZ III
Instrument: DOW KBr FOREPRISM-GRATING
Instrument parameters: BLAZED AT 3.5, 12.0, 20.0 MICRON, CHANGED AT 5.0, 7.5, 14.9 MICRON
Sampling: TRANSMISSION
Resolution: 4
Origin: DOW CHEMICAL COMPANY
1/CM	TRANSMITTANCE
449.687	0.122
458.215	0.105
466.742	0.089
475.27	0.077
483.797	0.065
492.325	0.058
500.852	0.053
509.38	0.049
517.908	0.046
526.435	0.041
534.963	0.038
543.49	0.029
552.018	0.017
560.546	0.011
569.073	0.037
577.601	0.041
586.128	0.091
594.656	0.15
603.183	0.204
611.711	0.257
620.239	0.305
628.766	0.351
637.294	0.397
645.821	0.433
654.349	0.456
662.877	0.476
671.404	0.496
679.932	0.503
688.459	0.51
696.987	0.493
705.514	0.457
714.042	0.414
722.57	0.4
731.097	0.457
739.625	0.513
748.152	0.561
756.68	0.593
765.208	0.607
773.735	0.613
782.263	0.549
790.79	0.574
799.318	0.658
807.845	0.663
816.373	0.662
824.901	0.654
833.428	0.643
841.956	0.628
850.483	0.617
859.011	0.606
867.539	0.594
876.066	0.581
884.594	0.561
893.121	0.545
901.649	0.529
910.176	0.511
918.704	0.494
927.232	0.474
935.759	0.454
944.287	0.434
952.814	0.414
961.342	0.397
969.87	0.378
978.397	0.363
986.925	0.344
995.452	0.315
1003.98	0.305
1012.51	0.331
1021.04	0.315
1029.56	0.3
1038.09	0.288
1046.62	0.279
1055.15	0.271
1063.67	0.271
1072.2	0.277
1080.73	0.283
1089.26	0.284
1097.78	0.279
1106.31	0.269
1114.84	0.252
1123.37	0.224
1131.89	0.178
1140.42	0.125
1148.95	0.094
1157.48	0.114
1166	0.183
1174.53	0.255
1183.06	0.321
1191.59	0.378
1200.11	0.412
1208.64	0.43
1217.17	0.446
1225.7	0.46
1234.22	0.466
1242.75	0.468
1251.28	0.472
1259.81	0.476
1268.33	0.476
1276.86	0.476
1285.39	0.472
1293.92	0.465
1302.45	0.452
1310.97	0.446
1319.5	0.446
1328.03	0.44
1336.56	0.436
1345.08	0.44
1353.61	0.446
1362.14	0.454
1370.67	0.454
1379.19	0.445
1387.72	0.432
1396.25	0.414
1404.78	0.396
1413.3	0.381
1421.83	0.369
1430.36	0.345
1438.89	0.307
1447.41	0.276
1455.94	0.228
1464.47	0.216
1473	0.2721
1481.52	0.452
1490.05	0.511
1498.58	0.507
1507.11	0.477
1515.63	0.445
1524.16	0.406
1532.69	0.378
1541.22	0.344
1549.75	0.317
1558.27	0.293
1566.8	0.26
1575.33	0.228
1583.86	0.206
1592.38	0.198
1600.91	0.203
1609.44	0.216
1617.97	0.223
1626.49	0.215
1635.02	0.234
1643.55	0.263
1652.08	0.352
1660.6	0.357
1669.13	0.316
1677.66	0.259
1686.19	0.251
1694.71	0.276
1703.24	0.312
1711.77	0.359
1720.3	0.426
1728.82	0.492
1737.35	0.561
1745.88	0.609
1754.41	0.659
1762.93	0.706
1771.46	0.751
1779.99	0.78
1788.52	0.815
1797.05	0.847
1805.57	0.869
1814.1	0.89
1822.63	0.91
1831.16	0.924
1839.68	0.936
1848.21	0.949
1856.74	0.956
1865.27	0.964
1873.79	0.973
1882.32	0.978
1890.85	0.986
1899.38	0.992
1907.9	0.996
1916.43	0.997
1924.96	1
1933.49	1
1942.01	0.998
1950.54	0.998
1959.07	0.997
1967.6	0.994
1976.12	0.993
1984.65	0.986
1993.18	0.981
2001.71	0.973
2010.23	0.972
2018.76	0.969
2027.29	0.97
2035.82	0.9679
2044.35	0.961
2052.87	0.957
2061.4	0.953
2069.93	0.9479
2078.46	0.946
2086.98	0.9449
2095.51	0.942
2104.04	0.937
2112.57	0.932
2121.09	0.9259
2129.62	0.9207
2138.15	0.9139
2146.68	0.9098
2155.2	0.9009
2163.73	0.8899
2172.26	0.8779
2180.79	0.8719
2189.31	0.871
2197.84	0.869
2206.37	0.867
2214.9	0.86
2223.42	0.8518
2231.95	0.8448
2240.48	0.8386
2249.01	0.8328
2257.53	0.8266
2266.06	0.8198
2274.59	0.8146
2283.12	0.811
2291.64	0.8065
2300.17	0.8008
2308.7	0.7967
2317.23	0.793
2325.76	0.796
2334.28	0.8
2342.81	0.8043
2351.34	0.8088
2359.87	0.8176
2368.39	0.8221
2376.92	0.812
2385.45	0.809
2393.98	0.809
2402.5	0.8077
2411.03	0.8063
2419.56	0.8047
2428.09	0.803
2436.61	0.8023
2445.14	0.799
2453.67	0.793
2462.2	0.7886
2470.72	0.791
2479.25	0.793
2487.78	0.795
2496.31	0.796
2504.83	0.795
2513.36	0.795
2521.89	0.793
2530.42	0.791
2538.94	0.787
2547.47	0.783
2556	0.777
2564.53	0.7741
2573.06	0.7675
2581.58	0.7616
2590.11	0.7565
2598.64	0.7505
2607.17	0.746
2615.69	0.7395
2624.22	0.731
2632.75	0.7265
2641.28	0.728
2649.8	0.73
2658.33	0.727
2666.86	0.7249
2675.39	0.724
2683.91	0.7224
2692.44	0.719
2700.97	0.718
2709.5	0.716
2718.02	0.715
2726.55	0.714
2735.08	0.7088
2743.61	0.7048
2752.13	0.7024
2760.66	0.6948
2769.19	0.6887
2777.72	0.6801
2786.24	0.6744
2794.77	0.672
2803.3	0.674
2811.83	0.672
2820.36	0.674
2828.88	0.674
2837.41	0.6686
2845.94	0.6593
2854.47	0.658
2862.99	0.66
2871.52	0.659
2880.05	0.656
2888.58	0.6503
2897.1	0.6433
2905.63	0.6303
2914.16	0.6143
2922.69	0.609
2931.21	0.6098
2939.74	0.613
2948.27	0.6067
2956.8	0.5978
2965.32	0.601
2973.85	0.5974
2982.38	0.5892
2990.91	0.5862
2999.43	0.5774
3007.96	0.5705
3016.49	0.5612
3025.02	0.5505
3033.54	0.5422
3042.07	0.5342
3050.6	0.5235
3059.13	0.5114
3067.66	0.5021
3076.18	0.4891
3084.71	0.4771
3093.24	0.4641
3101.77	0.4484
3110.29	0.4402
3118.82	0.434
3127.35	0.425
3135.88	0.4161
3144.4	0.4121
3152.93	0.4003
3161.46	0.3902
3169.99	0.3772
3178.51	0.363
3187.04	0.348
3195.57	0.3321
3204.1	0.324
3212.62	0.319
3221.15	0.316
3229.68	0.319
3238.21	0.316
3246.73	0.311
3255.26	0.315
3263.79	0.32
3272.32	0.3189
3280.84	0.316
3289.37	0.312
3297.9	0.3049
3306.43	0.2889
3314.95	0.2769
3323.48	0.2729
3332.01	0.271
3340.54	0.2732
3349.07	0.2876
3357.59	0.3174
3366.12	0.3718
3374.65	0.3973
3383.18	0.3979
3391.7	0.3774
3400.23	0.3338
3408.76	0.2989
3417.29	0.2714
3425.81	0.251
3434.34	0.2512
3442.87	0.2562
3451.4	0.2682
3459.92	0.2802
3468.45	0.2989
3476.98	0.3353
3485.51	0.384
3494.03	0.4448
3502.56	0.5049
3511.09	0.573
3519.62	0.646
3528.14	0.7449
3536.67	0.8177
3545.2	0.8727
3553.73	0.9209
3562.25	0.9461
3570.78	0.9571
3579.31	0.9717
3587.84	0.9786
3596.37	0.9826
3604.89	0.985
3613.42	0.9847
3621.95	0.9847
3630.48	0.981
3639	0.9793
3647.53	0.975
3656.06	0.969
3664.59	0.968
3673.11	0.96
3681.64	0.9559
3690.17	0.9473
3698.7	0.9433
3707.22	0.9366
3715.75	0.9296
3724.28	0.9232
3732.81	0.9176
3741.33	0.9112
3749.86	0.9032
3758.39	0.897
3766.92	0.8911
3775.44	0.8871
3783.97	0.881
3792.5	0.876
3801.03	0.8741
