Infrared Spectrum: 1,1-DICHLORO-2-FLUORO PROPENE-1
Formula: C3 H3 Cl2 F
CAS: 430-95-5
State: SOLUTION (10% CCl4 FOR 5000-1330, 10% CS2 FOR 1330-625 CM^-^1)
Class: COBLENTZ
Instrument: Not specified, most likely a prism, grating, or hybrid spectrometer.
Sampling: TRANSMISSION
Path length: 0.0110 CM, 0.0111 CM
Resolution: 4
Origin: DOW CHEMICAL COMPANY
MICROMETERS	TRANSMITTANCE
2.034	0.888
2.07516	0.89
2.11631	0.891
2.15747	0.897
2.19863	0.891
2.23978	0.888
2.28094	0.891
2.3221	0.898
2.36325	0.9
2.40441	0.905
2.44557	0.907
2.48672	0.907
2.52788	0.91
2.56903	0.912
2.61019	0.91
2.65135	0.91
2.6925	0.91
2.73366	0.912
2.77482	0.91
2.81597	0.907
2.85713	0.902
2.89829	0.89
2.93944	0.888
2.9806	0.891
3.02176	0.897
3.06291	0.897
3.10407	0.902
3.14523	0.905
3.18638	0.905
3.22754	0.9
3.2687	0.893
3.30985	0.876
3.35101	0.855
3.39216	0.818
3.43332	0.881
3.47448	0.888
3.51563	0.898
3.55679	0.912
3.59795	0.912
3.6391	0.919
3.68026	0.927
3.72142	0.927
3.76257	0.927
3.80373	0.926
3.84489	0.926
3.88604	0.927
3.9272	0.927
3.96836	0.927
4.00951	0.926
4.05067	0.927
4.09183	0.927
4.13298	0.929
4.17414	0.939
4.21529	0.941
4.25645	0.941
4.29761	0.939
4.33876	0.919
4.37992	0.926
4.42108	0.929
4.46223	0.929
4.50339	0.938
4.54455	0.936
4.5857	0.939
4.62686	0.941
4.66802	0.936
4.70917	0.931
4.75033	0.941
4.79149	0.948
4.83264	0.946
4.8738	0.948
4.91496	0.945
4.95611	0.945
4.99727	0.941
5.03842	0.931
5.07958	0.931
5.12074	0.938
5.16189	0.938
5.20305	0.936
5.24421	0.938
5.28536	0.938
5.32652	0.933
5.36768	0.919
5.40883	0.898
5.44999	0.903
5.49115	0.89
5.5323	0.847
5.57346	0.85
5.61462	0.873
5.65577	0.897
5.69693	0.898
5.73809	0.879
5.77924	0.879
5.8204	0.9
5.86155	0.909
5.90271	0.898
5.94387	0.723
5.98502	0.516
6.02618	0.787
6.06734	0.847
6.10849	0.867
6.14965	0.878
6.19081	0.854
6.23196	0.783
6.27312	0.699
6.31428	0.651
6.35543	0.622
6.39659	0.574
6.43775	0.518
6.4789	0.511
6.52006	0.584
6.56122	0.641
6.60237	0.684
6.64353	0.749
6.68468	0.801
6.72584	0.828
6.767	0.831
6.80815	0.818
6.84931	0.799
6.89047	0.703
6.93162	0.61
6.97278	0.653
7.01394	0.728
7.05509	0.74
7.09625	0.758
7.13741	0.777
7.17856	0.679
7.21972	0.403
7.26088	0.744
7.30203	0.847
7.34319	0.862
7.38435	0.876
7.4255	0.879
7.46666	0.879
7.50781	0.879
7.54897	0.881
7.59013	0.881
7.63128	0.881
7.67244	0.881
7.7136	0.869
7.75475	0.85
7.79591	0.838
7.83707	0.838
7.87822	0.821
7.91938	0.77
7.96054	0.629
8.00169	0.32
8.04285	0.068
8.08401	0.18
8.12516	0.54
8.16632	0.691
8.20748	0.737
8.24863	0.77
8.28979	0.807
8.33094	0.828
8.3721	0.837
8.41326	0.84
8.45441	0.84
8.49557	0.837
8.53673	0.831
8.57788	0.837
8.61904	0.847
8.6602	0.855
8.70135	0.866
8.74251	0.867
8.78367	0.861
8.82482	0.859
8.86598	0.859
8.90714	0.859
8.94829	0.849
8.98945	0.819
9.03061	0.823
9.07176	0.845
9.11292	0.85
9.15407	0.849
9.19523	0.842
9.23639	0.838
9.27754	0.843
9.3187	0.847
9.35986	0.845
9.40101	0.825
9.44217	0.773
9.48333	0.684
9.52448	0.656
9.56564	0.622
9.6068	0.445
9.64795	0.289
9.68911	0.367
9.73027	0.511
9.77142	0.598
9.81258	0.634
9.85374	0.639
9.89489	0.617
9.93605	0.614
9.9772	0.655
10.0184	0.704
10.0595	0.727
10.1007	0.727
10.1418	0.698
10.183	0.646
10.2241	0.543
10.2653	0.379
10.3065	0.161
10.3476	0.029
10.3888	0.012
10.4299	0.018
10.4711	0.106
10.5122	0.325
10.5534	0.475
10.5946	0.557
10.6357	0.603
10.6769	0.679
10.718	0.74
10.7592	0.77
10.8003	0.777
10.8415	0.777
10.8826	0.761
10.9238	0.716
10.965	0.629
11.0061	0.459
11.0473	0.245
11.0884	0.15
11.1296	0.252
11.1707	0.445
11.2119	0.591
11.2531	0.643
11.2942	0.672
11.3354	0.675
11.3765	0.668
11.4177	0.691
11.4588	0.715
11.5	0.722
11.5412	0.718
11.5823	0.716
11.6235	0.711
11.6646	0.71
11.7058	0.708
11.7469	0.72
11.7881	0.74
11.8292	0.768
11.8704	0.782
11.9116	0.785
11.9527	0.783
11.9939	0.778
12.035	0.794
12.0762	0.818
12.1173	0.843
12.1585	0.855
12.1997	0.864
12.2408	0.869
12.282	0.871
12.3231	0.871
12.3643	0.871
12.4054	0.871
12.4466	0.871
12.4878	0.871
12.5289	0.869
12.5701	0.869
12.6112	0.869
12.6524	0.869
12.6935	0.867
12.7347	0.867
12.7758	0.867
12.817	0.867
12.8582	0.867
12.8993	0.867
12.9405	0.861
12.9816	0.852
13.0228	0.849
13.0639	0.849
13.1051	0.849
13.1463	0.847
13.1874	0.847
13.2286	0.843
13.2697	0.84
13.3109	0.837
13.352	0.83
13.3932	0.828
13.4344	0.826
13.4755	0.819
13.5167	0.814
13.5578	0.809
13.599	0.807
13.6401	0.807
13.6813	0.806
13.7224	0.799
13.7636	0.795
13.8048	0.79
13.8459	0.785
13.8871	0.778
13.9282	0.77
13.9694	0.763
14.0105	0.756
14.0517	0.747
14.0929	0.74
14.134	0.735
14.1752	0.722
14.2163	0.713
14.2575	0.701
14.2986	0.696
14.3398	0.696
14.381	0.694
14.4221	0.689
14.4633	0.686
14.5044	0.677
14.5456	0.67
14.5867	0.663
14.6279	0.651
14.669	0.641
14.7102	0.636
14.7514	0.629
14.7925	0.624
14.8337	0.619
14.8748	0.617
14.916	0.612
14.9571	0.612
14.9983	0.6
15.0395	0.586
15.0806	0.572
15.1218	0.566
15.1629	0.557
15.2041	0.547
15.2452	0.542
15.2864	0.535
15.3275	0.53
15.3687	0.524
15.4099	0.519
15.451	0.514
15.4922	0.511
15.5333	0.507
15.5745	0.507
15.6156	0.499
15.6568	0.499
15.698	0.499
15.7391	0.499
15.7803	0.497
15.8214	0.497
15.8626	0.497
15.9037	0.497
