Infrared Spectrum: Propane, 1,2,2-trichloro-
Formula: C 3 H 5 Cl 3
CAS: 3175-23-3
State: gas
Origin: Sadtler Research Labs Under US-EPA Contract
1/CM	ABSORBANCE
450	0
462	0.0429338
474	0.0569901
486	0.0439857
498	0.0349017
510	0.0442725
522	0.0445594
534	0.0445594
546	0.0525916
558	0.0562251
570	0.0662654
582	0.167241
594	0.262671
606	0.14085
618	0.042647
630	0.0378659
642	0.0465674
654	0.0699946
666	0.129184
678	0.29413
690	0.721269
702	0.921786
714	0.367758
726	0.100976
738	0.102601
750	0.145344
762	0.273285
774	0.316888
786	0.14936
798	0.0588069
810	0.0436988
822	0.0371966
834	0.0354754
846	0.0364316
858	0.0378659
870	0.0395871
882	0.0491492
894	0.0591894
906	0.0693252
918	0.115319
930	0.127367
942	0.0836684
954	0.0516353
966	0.041117
978	0.0371966
990	0.0366228
1002	0.0403521
1014	0.0448462
1026	0.0533565
1038	0.0651179
1050	0.12555
1062	0.385353
1074	0.723564
1086	0.334482
1098	0.0957166
1110	0.0666478
1122	0.0524959
1134	0.0468543
1146	0.0531653
1158	0.0890232
1170	0.13473
1182	0.126985
1194	0.0852939
1206	0.0839552
1218	0.138459
1230	0.141137
1242	0.0804173
1254	0.0497229
1266	0.0524959
1278	0.103749
1290	0.112546
1302	0.0544083
1314	0.0385353
1326	0.0384396
1338	0.0396827
1350	0.0409258
1362	0.0498185
1374	0.12402
1386	0.248232
1398	0.134252
1410	0.0499142
1422	0.0916049
1434	0.14324
1446	0.154045
1458	0.122873
1470	0.0660741
1482	0.0396827
1494	0.0347104
1506	0.033563
1518	0.0322243
1530	0.0318418
1542	0.0315549
1554	0.0321287
1566	0.0325111
1578	0.0323199
1590	0.0323199
1602	0.0331805
1614	0.0346148
1626	0.0370053
1638	0.0369097
1650	0.0333717
1662	0.0327024
1674	0.0319374
1686	0.0326068
1698	0.0341367
1710	0.0371009
1722	0.0427426
1734	0.0479061
1746	0.0503923
1758	0.0457068
1770	0.0400652
1782	0.0366228
1794	0.0349017
1806	0.0332761
1818	0.0322243
1830	0.0318418
1842	0.0313637
1854	0.0315549
1866	0.0311724
1878	0.0310768
1890	0.0309812
1902	0.0305031
1914	0.0306943
1926	0.0314593
1938	0.0314593
1950	0.0317462
1962	0.0314593
1974	0.0314593
1986	0.0314593
1998	0.0310768
2010	0.0313637
2022	0.0313637
2034	0.0312681
2046	0.0311724
2058	0.0311724
2070	0.0310768
2082	0.0313637
2094	0.0314593
2106	0.0321287
2118	0.0331805
2130	0.033563
2142	0.0326068
2154	0.0315549
2166	0.03079
2178	0.0309812
2190	0.0309812
2202	0.0305031
2214	0.0312681
2226	0.0316506
2238	0.0312681
2250	0.0319374
2262	0.0330849
2274	0.0340411
2286	0.0334673
2298	0.0329892
2310	0.0329892
2322	0.0314593
2334	0.03079
2346	0.0314593
2358	0.0305031
2370	0.0305031
2382	0.0326068
2394	0.0317462
2406	0.0312681
2418	0.0314593
2430	0.0319374
2442	0.033563
2454	0.0343279
2466	0.0326068
2478	0.0323199
2490	0.0324155
2502	0.0328936
2514	0.032798
2526	0.0322243
2538	0.0322243
2550	0.0331805
2562	0.0339455
2574	0.0329892
2586	0.0324155
2598	0.0332761
2610	0.0347104
2622	0.0340411
2634	0.0325111
2646	0.0322243
2658	0.0315549
2670	0.0310768
2682	0.0312681
2694	0.0313637
2706	0.0330849
2718	0.0338498
2730	0.0330849
2742	0.032798
2754	0.0326068
2766	0.0315549
2778	0.0317462
2790	0.0313637
2802	0.0310768
2814	0.0332761
2826	0.035571
2838	0.0376747
2850	0.0415951
2862	0.0429338
2874	0.0436988
2886	0.0448462
2898	0.0415951
2910	0.0394915
2922	0.0400652
2934	0.060815
2946	0.106904
2958	0.100785
2970	0.111877
2982	0.103749
2994	0.105374
3006	0.143049
3018	0.107478
3030	0.0534521
3042	0.0340411
3054	0.0344236
3066	0.0336586
3078	0.0334673
3090	0.0328936
3102	0.032798
3114	0.0331805
3126	0.0330849
3138	0.0334673
3150	0.0324155
3162	0.0333717
3174	0.0336586
3186	0.0328936
3198	0.0322243
3210	0.032033
3222	0.032033
3234	0.0311724
3246	0.032798
3258	0.0325111
3270	0.0340411
3282	0.0336586
3294	0.033563
3306	0.0322243
3318	0.0319374
3330	0.0322243
3342	0.0339455
3354	0.0321287
3366	0.0321287
3378	0.032033
3390	0.0315549
3402	0.0324155
3414	0.0326068
3426	0.0329892
3438	0.0319374
3450	0.0322243
3462	0.0321287
3474	0.0323199
3486	0.0328936
3498	0.0328936
3510	0.032798
3522	0.0338498
3534	0.0332761
3546	0.0344236
3558	0.0346148
3570	0.0344236
3582	0.0334673
3594	0.0353798
3606	0.0344236
3618	0.0339455
3630	0.0330849
3642	0.0343279
3654	0.0342323
3666	0.0354754
3678	0.0354754
3690	0.0366228
3702	0.0349973
3714	0.0341367
3726	0.0346148
3738	0.0376747
3750	0.0356666
3762	0.0337542
3774	0.0360491
3786	0.0380572
3798	0.0351885
3810	0.0340411
3822	0.0368141
3834	0.0360491
3846	0.0384396
3858	0.0357623
3870	0.0352841
3882	0.0384396
3894	0.0371966
3906	0.0375791
3918	0.0374834
3930	0.0343279
3942	0.0388221
3954	0.039874
3966	0.035571
