Infrared Spectrum: Ethane, 1,1,2-trichloro-
Formula: C 2 H 3 Cl 3
CAS: 79-00-5
State: gas
Origin: Sadtler Research Labs Under US-EPA Contract
1/CM	ABSORBANCE
450	0
462	0.00650438
474	0.00900607
486	0.0133423
498	0.0136759
510	0.0160108
522	0.0310209
534	0.0270182
546	0.0116745
558	0.0111742
570	0.0115078
582	0.0170115
594	0.012842
606	0.0115078
618	0.0176786
630	0.0195131
642	0.0425286
654	0.110908
666	0.293364
678	0.39043
690	0.186959
702	0.125918
714	0.258841
726	0.895937
738	1.46399
750	1.01252
762	0.12892
774	0.160275
786	0.234658
798	0.191462
810	0.0453639
822	0.0206806
834	0.0246833
846	0.0213477
858	0.0180121
870	0.018846
882	0.0210142
894	0.0291863
906	0.046031
918	0.113743
930	0.313711
942	0.356907
954	0.144264
966	0.0370249
978	0.0233491
990	0.0210142
1002	0.0230155
1014	0.0236826
1026	0.0268514
1038	0.0423619
1050	0.0502005
1062	0.0385259
1074	0.0223484
1086	0.0123416
1098	0.0116745
1110	0.0123416
1122	0.0125084
1134	0.0151769
1146	0.0275185
1158	0.0555374
1170	0.0500337
1182	0.0310209
1194	0.0880593
1206	0.248334
1218	0.240662
1230	0.0692133
1242	0.0900607
1254	0.177119
1266	0.195298
1278	0.095064
1290	0.0428622
1302	0.0957311
1314	0.0999006
1326	0.0350236
1338	0.0240162
1350	0.0205138
1362	0.0145098
1374	0.0121749
1386	0.0123416
1398	0.0131755
1410	0.0186792
1422	0.0550371
1434	0.116745
1446	0.10357
1458	0.0318548
1470	0.0146766
1482	0.0125084
1494	0.0125084
1506	0.0115078
1518	0.0106739
1530	0.00967318
1542	0.0111742
1554	0.0105071
1566	0.00933962
1578	0.00917285
1590	0.00917285
1602	0.00933962
1614	0.00983996
1626	0.00833895
1638	0.00917285
1650	0.00850573
1662	0.00867251
1674	0.00900607
1686	0.0103403
1698	0.0101735
1710	0.00900607
1722	0.00883929
1734	0.00933962
1746	0.00900607
1758	0.00867251
1770	0.00867251
1782	0.00883929
1794	0.00867251
1806	0.00833895
1818	0.00867251
1830	0.00900607
1842	0.00850573
1854	0.00750506
1866	0.00767183
1878	0.00783861
1890	0.00783861
1902	0.00767183
1914	0.00767183
1926	0.00733828
1938	0.00767183
1950	0.00767183
1962	0.00750506
1974	0.00850573
1986	0.00867251
1998	0.00833895
2010	0.00800539
2022	0.00767183
2034	0.00817217
2046	0.00833895
2058	0.00800539
2070	0.00800539
2082	0.00883929
2094	0.00967318
2106	0.00967318
2118	0.00867251
2130	0.00750506
2142	0.00750506
2154	0.00733828
2166	0.00767183
2178	0.00783861
2190	0.00867251
2202	0.00867251
2214	0.00817217
2226	0.00783861
2238	0.00800539
2250	0.00833895
2262	0.00783861
2274	0.00767183
2286	0.00733828
2298	0.0071715
2310	0.0071715
2322	0.00750506
2334	0.00767183
2346	0.00967318
2358	0.0111742
2370	0.0111742
2382	0.00917285
2394	0.00983996
2406	0.0116745
2418	0.0103403
2430	0.00967318
2442	0.0103403
2454	0.0118413
2466	0.0126752
2478	0.0111742
2490	0.0101735
2502	0.0101735
2514	0.0108406
2526	0.0103403
2538	0.00833895
2550	0.00833895
2562	0.00917285
2574	0.00900607
2586	0.00850573
2598	0.00900607
2610	0.00833895
2622	0.00783861
2634	0.00800539
2646	0.00833895
2658	0.00800539
2670	0.00783861
2682	0.00867251
2694	0.0100067
2706	0.0100067
2718	0.00867251
2730	0.00983996
2742	0.0103403
2754	0.00933962
2766	0.00850573
2778	0.00833895
2790	0.00833895
2802	0.00833895
2814	0.00867251
2826	0.00900607
2838	0.0111742
2850	0.0195131
2862	0.0206806
2874	0.0130088
2886	0.0116745
2898	0.0120081
2910	0.0126752
2922	0.0131755
2934	0.0136759
2946	0.0183457
2958	0.0380256
2970	0.101735
2982	0.102402
2994	0.0328555
3006	0.0303538
3018	0.0311877
3030	0.0191796
3042	0.0121749
3054	0.00933962
3066	0.00933962
3078	0.00983996
3090	0.00883929
3102	0.00850573
3114	0.00883929
3126	0.00867251
3138	0.00867251
3150	0.00883929
3162	0.00867251
3174	0.00850573
3186	0.00867251
3198	0.00867251
3210	0.00850573
3222	0.00867251
3234	0.00867251
3246	0.00850573
3258	0.00833895
3270	0.00850573
3282	0.00817217
3294	0.00817217
3306	0.00850573
3318	0.00883929
3330	0.00850573
3342	0.00833895
3354	0.00867251
3366	0.00817217
3378	0.00850573
3390	0.00883929
3402	0.00867251
3414	0.00900607
3426	0.00900607
3438	0.00767183
3450	0.00783861
3462	0.00850573
3474	0.00867251
3486	0.00833895
3498	0.00800539
3510	0.00867251
3522	0.00767183
3534	0.00817217
3546	0.00750506
3558	0.00833895
3570	0.00783861
3582	0.00933962
3594	0.0071715
3606	0.00833895
3618	0.00800539
3630	0.00783861
3642	0.00917285
3654	0.00933962
3666	0.00967318
3678	0.00833895
3690	0.0101735
3702	0.0100067
3714	0.00883929
3726	0.00850573
3738	0.00883929
3750	0.00933962
3762	0.0108406
3774	0.0108406
3786	0.0105071
3798	0.011341
3810	0.0111742
3822	0.00850573
3834	0.00917285
3846	0.00783861
3858	0.00750506
3870	0.00767183
3882	0.00800539
3894	0.00983996
3906	0.00883929
3918	0.00833895
3930	0.00983996
3942	0.00917285
3954	0.0106739
3966	0.0101735
