Infrared Spectrum: Ethane, 1,1,2-trichloro-
Formula: C2 H3 Cl3
CAS: 79-00-5
State: GAS (15 mmHg, N2 ADDED, TOTAL PRESSURE 600 mmHg)
Class: COBLENTZ
Instrument: DOW KBr FOREPRISM-GRATING
Instrument parameters: GRATING CHANGED AT 5.0, 7.5, 15.0 MICRON
Sampling: TRANSMISSION
Path length: 5 CM
Resolution: 2
Origin: DOW CHEMICAL COMPANY
1/CM	TRANSMITTANCE
460	0.8588
469	0.8571
478	0.8549
487	0.8535
496	0.8524
505	0.8491
514	0.8446
523	0.8376
532	0.8361
541	0.839
550	0.8453
559	0.8512
568	0.8532
577	0.8549
586	0.8564
595	0.8573
604	0.8584
613	0.8603
622	0.8612
631	0.8596
640	0.8525
649	0.8381
658	0.8098
667	0.7353
676	0.6549
685	0.6558
694	0.8043
703	0.8429
712	0.8278
721	0.8017
730	0.6437
739	0.2329
748	0.1999
757	0.6184
766	0.8235
775	0.808
784	0.7445
793	0.7298
802	0.7516
811	0.8467
820	0.8616
829	0.8631
838	0.8624
847	0.8621
856	0.8644
865	0.869
874	0.8692
883	0.8662
892	0.8634
901	0.8605
910	0.8567
919	0.8252
928	0.7278
937	0.694
946	0.7302
955	0.8086
964	0.8638
973	0.8688
982	0.8709
991	0.8719
1000	0.8718
1009	0.8727
1018	0.8763
1027	0.8786
1036	0.8697
1045	0.8589
1054	0.8537
1063	0.8594
1072	0.8694
1081	0.8751
1090	0.8794
1099	0.8819
1108	0.883
1117	0.8835
1126	0.8835
1135	0.8783
1144	0.8721
1153	0.863
1162	0.8488
1171	0.8591
1180	0.8734
1189	0.8744
1198	0.841
1207	0.715
1216	0.7483
1225	0.8405
1234	0.8721
1243	0.8562
1252	0.8507
1261	0.7807
1270	0.7433
1279	0.803
1288	0.8574
1297	0.8588
1306	0.8192
1315	0.8116
1324	0.8331
1333	0.8592
1342	0.8591
1351	0.8588
1360	0.8763
1369	0.8759
1378	0.8655
1387	0.86
1396	0.8578
1405	0.856
1414	0.8554
1423	0.8453
1432	0.8153
1441	0.721
1450	0.8026
1459	0.8384
1468	0.8551
1477	0.8489
1486	0.8529
1495	0.8511
1504	0.8507
1513	0.8483
1522	0.8463
1531	0.8506
1540	0.8416
1549	0.8487
1558	0.8478
1567	0.8494
1576	0.8508
1585	0.8582
1594	0.8595
1603	0.8603
1612	0.8604
1621	0.8544
1630	0.8604
1639	0.8548
1648	0.8573
1657	0.8452
1666	0.8566
1675	0.8555
1684	0.854
1693	0.8562
1702	0.8466
1711	0.856
1720	0.8526
1729	0.8572
1738	0.852
1747	0.8574
1756	0.8554
1765	0.853
1774	0.8479
1783	0.8511
1792	0.852
1801	0.8531
1810	0.8534
1819	0.8532
1828	0.8529
1837	0.8524
1846	0.852
1855	0.8518
1864	0.8515
1873	0.8513
1882	0.8514
1891	0.8515
1900	0.8517
1909	0.8516
1918	0.8514
1927	0.8515
1936	0.8517
1945	0.852
1954	0.8525
1963	0.8533
1972	0.854
1981	0.8542
1990	0.8542
1999	0.8542
2008	0.8541
2017	0.854
2026	0.854
2035	0.8539
2044	0.8539
2053	0.8541
2062	0.8543
2071	0.8545
2080	0.8547
2089	0.8548
2098	0.855
2107	0.8552
2116	0.8554
2125	0.8556
2134	0.856
2143	0.8563
2152	0.8563
2161	0.8563
2170	0.8563
2179	0.8563
2188	0.8563
2197	0.8563
2206	0.8563
2215	0.8563
2224	0.8564
2233	0.8564
2242	0.8565
2251	0.8566
2260	0.8567
2269	0.8567
2278	0.8569
2287	0.857
2296	0.8572
2305	0.8574
2314	0.8575
2323	0.8582
2332	0.8591
2341	0.8599
2350	0.8608
2359	0.8615
2368	0.8616
2377	0.8617
2386	0.8618
2395	0.8619
2404	0.8621
2413	0.8624
2422	0.8628
2431	0.863
2440	0.8628
2449	0.8622
2458	0.8616
2467	0.8612
2476	0.8616
2485	0.8629
2494	0.8638
2503	0.8634
2512	0.8629
2521	0.8625
2530	0.864
2539	0.8652
2548	0.8663
2557	0.8672
2566	0.8679
2575	0.8679
2584	0.8679
2593	0.8679
2602	0.8679
2611	0.8679
2620	0.8678
2629	0.8677
2638	0.8676
2647	0.8675
2656	0.8674
2665	0.8673
2674	0.8673
2683	0.867
2692	0.8665
2701	0.8659
2710	0.8653
2719	0.8649
2728	0.8645
2737	0.8641
2746	0.8638
2755	0.8641
2764	0.8644
2773	0.8647
2782	0.865
2791	0.8653
2800	0.8655
2809	0.8656
2818	0.8657
2827	0.8661
2836	0.8684
2845	0.8683
2854	0.8638
2863	0.862
2872	0.8671
2881	0.8704
2890	0.8715
2899	0.8731
2908	0.881
2917	0.8885
2926	0.8831
2935	0.8751
2944	0.8691
2953	0.8608
2962	0.8357
2971	0.8028
2980	0.818
2989	0.8507
2998	0.853
3007	0.8458
3016	0.8495
3025	0.8555
3034	0.8576
3043	0.86
3052	0.8611
3061	0.8614
3070	0.8612
3079	0.8611
3088	0.8618
3097	0.8624
3106	0.863
3115	0.8635
3124	0.8641
3133	0.8645
3142	0.8651
3151	0.8657
3160	0.8663
3169	0.8668
3178	0.8675
3187	0.8684
3196	0.8693
3205	0.8701
3214	0.871
3223	0.8714
3232	0.8717
3241	0.8719
3250	0.8721
3259	0.8722
3268	0.8723
3277	0.8724
3286	0.8726
3295	0.8728
3304	0.8731
3313	0.8729
3322	0.8725
3331	0.872
3340	0.8717
3349	0.871
3358	0.8704
3367	0.8694
3376	0.8693
3385	0.8724
3394	0.8726
3403	0.8727
3412	0.873
3421	0.8732
3430	0.8736
3439	0.8733
3448	0.8719
3457	0.8668
3466	0.8654
3475	0.8705
3484	0.8724
3493	0.873
3502	0.873
3511	0.8728
3520	0.8726
3529	0.8725
3538	0.8724
3547	0.8723
3556	0.8719
3565	0.8713
3574	0.8708
3583	0.8702
3592	0.8698
3601	0.8692
3610	0.8688
3619	0.8683
3628	0.8681
3637	0.8679
3646	0.8678
3655	0.8679
3664	0.8669
3673	0.8633
3682	0.862
3691	0.866
3700	0.8697
3709	0.8733
3718	0.8774
3727	0.8813
3736	0.8772
3745	0.8694
3754	0.8679
3763	0.8681
3772	0.8687
3781	0.8695
3790	0.8703
