Infrared Spectrum: 1,1,2-TRICHLOROETHANE
Formula: C2 H3 Cl3
CAS: 79-00-5
Class: COBLENTZ
Instrument: Not specified, most likely a prism, grating, or hybrid spectrometer.
Sampling: TRANSMISSION
Path length: 0.0025 CM
Resolution: 4
Origin: W.T. BOLLETER
MICROMETERS	TRANSMITTANCE
14.526	0.012
14.5961	0.019
14.6661	0.028
14.7362	0.03
14.8063	0.025
14.8764	0.016
14.9464	0.008
15.0165	0.007
15.0866	0.007
15.1566	0.005
15.2267	0.007
15.2968	0.008
15.3669	0.01
15.4369	0.023
15.507	0.03
15.5771	0.032
15.6471	0.032
15.7172	0.042
15.7873	0.103
15.8574	0.266
15.9274	0.449
15.9975	0.554
16.0676	0.667
16.1376	0.738
16.2077	0.774
16.2778	0.801
16.3479	0.821
16.4179	0.831
16.488	0.837
16.5581	0.831
16.6281	0.819
16.6982	0.806
16.7683	0.803
16.8384	0.812
16.9084	0.835
16.9785	0.86
17.0486	0.883
17.1187	0.896
17.1887	0.905
17.2588	0.914
17.3289	0.919
17.3989	0.928
17.469	0.932
17.5391	0.94
17.6092	0.944
17.6792	0.946
17.7493	0.948
17.8194	0.949
17.8894	0.955
17.9595	0.962
18.0296	0.964
18.0997	0.962
18.1697	0.951
18.2398	0.946
18.3099	0.937
18.3799	0.917
18.45	0.899
18.5201	0.88
18.5902	0.855
18.6602	0.821
18.7303	0.756
18.8004	0.692
18.8704	0.543
18.9405	0.368
19.0106	0.234
19.0807	0.127
19.1507	0.119
19.2208	0.27
19.2909	0.431
19.3609	0.599
19.431	0.74
19.5011	0.81
19.5712	0.851
19.6412	0.88
19.7113	0.892
19.7814	0.901
19.8514	0.91
19.9215	0.921
19.9916	0.923
20.0617	0.926
20.1317	0.928
20.2018	0.93
20.2719	0.932
20.3419	0.932
20.412	0.932
20.4821	0.933
20.5522	0.932
20.6222	0.93
20.6923	0.928
20.7624	0.928
20.8324	0.923
20.9025	0.917
20.9726	0.914
21.0427	0.91
21.1127	0.91
21.1828	0.914
21.2529	0.912
21.3229	0.91
21.393	0.91
21.4631	0.914
21.5332	0.915
21.6032	0.912
21.6733	0.906
21.7434	0.903
21.8135	0.898
21.8835	0.892
21.9536	0.885
22.0237	0.88
22.0937	0.878
22.1638	0.878
22.2339	0.876
22.304	0.876
22.374	0.872
22.4441	0.874
22.5142	0.876
22.5842	0.88
22.6543	0.878
22.7244	0.878
22.7945	0.88
22.8645	0.881
22.9346	0.885
23.0047	0.887
23.0747	0.889
23.1448	0.887
23.2149	0.885
23.285	0.883
23.355	0.881
23.4251	0.88
23.4952	0.874
23.5652	0.869
23.6353	0.862
23.7054	0.855
23.7755	0.847
23.8455	0.84
23.9156	0.831
23.9857	0.819
24.0557	0.806
24.1258	0.792
24.1959	0.783
24.266	0.765
24.336	0.751
24.4061	0.731
24.4762	0.708
24.5462	0.672
24.6163	0.631
24.6864	0.597
24.7565	0.543
24.8265	0.515
24.8966	0.472
24.9667	0.429
25.0367	0.379
25.1068	0.323
25.1769	0.268
25.247	0.205
25.317	0.162
25.3871	0.123
25.4572	0.084
25.5272	0.057
25.5973	0.035
25.6674	0.03
25.7375	0.028
25.8075	0.025
25.8776	0.026
25.9477	0.03
26.0177	0.033
26.0878	0.042
26.1579	0.073
26.228	0.123
26.298	0.196
26.3681	0.268
26.4382	0.339
26.5083	0.407
26.5783	0.472
26.6484	0.529
26.7185	0.572
26.7885	0.62
26.8586	0.66
26.9287	0.697
26.9988	0.724
27.0688	0.762
27.1389	0.779
27.209	0.797
27.279	0.808
27.3491	0.828
27.4192	0.846
27.4893	0.856
27.5593	0.867
27.6294	0.878
27.6995	0.89
27.7695	0.896
27.8396	0.901
27.9097	0.908
27.9798	0.917
28.0498	0.921
28.1199	0.923
28.19	0.928
28.26	0.93
28.3301	0.932
28.4002	0.933
28.4703	0.942
28.5403	0.944
28.6104	0.944
28.6805	0.942
28.7505	0.94
28.8206	0.939
28.8907	0.935
28.9608	0.935
29.0308	0.932
29.1009	0.928
29.171	0.917
29.241	0.906
29.3111	0.899
29.3812	0.881
29.4513	0.86
29.5213	0.831
29.5914	0.799
29.6615	0.753
29.7315	0.686
29.8016	0.606
29.8717	0.531
29.9418	0.447
30.0118	0.377
30.0819	0.338
30.152	0.313
30.222	0.318
30.2921	0.336
30.3622	0.364
30.4323	0.407
30.5023	0.447
30.5724	0.484
30.6425	0.529
30.7125	0.57
30.7826	0.617
30.8527	0.677
30.9228	0.708
30.9928	0.726
31.0629	0.733
31.133	0.729
31.2031	0.726
31.2731	0.715
31.3432	0.701
31.4133	0.677
31.4833	0.663
31.5534	0.647
31.6235	0.633
31.6936	0.627
31.7636	0.631
31.8337	0.636
31.9038	0.652
31.9738	0.674
32.0439	0.703
32.114	0.728
32.1841	0.749
32.2541	0.763
32.3242	0.781
32.3943	0.796
32.4643	0.805
32.5344	0.813
32.6045	0.822
32.6746	0.828
32.7446	0.831
32.8147	0.84
32.8848	0.855
32.9548	0.858
33.0249	0.856
33.095	0.855
33.1651	0.849
33.2351	0.846
33.3052	0.842
33.3753	0.844
33.4453	0.846
33.5154	0.851
33.5855	0.855
33.6556	0.858
33.7256	0.858
33.7957	0.855
33.8658	0.855
33.9358	0.855
34.0059	0.855
34.076	0.851
34.1461	0.853
34.2161	0.851
34.2862	0.847
34.3563	0.837
34.4263	0.83
34.4964	0.822
34.5665	0.806
34.6366	0.79
34.7066	0.774
34.7767	0.763
34.8468	0.749
34.9168	0.717
34.9869	0.694
35.057	0.66
35.1271	0.635
35.1971	0.626
35.2672	0.62
35.3373	0.611
35.4073	0.608
35.4774	0.604
35.5475	0.602
35.6176	0.602
35.6876	0.608
35.7577	0.613
35.8278	0.615
35.8979	0.617
35.9679	0.617
36.038	0.617
36.1081	0.617
36.1781	0.613
36.2482	0.613
36.3183	0.611
36.3884	0.613
36.4584	0.615
36.5285	0.618
36.5986	0.618
36.6686	0.615
36.7387	0.62
36.8088	0.618
36.8789	0.622
36.9489	0.62
37.019	0.617
37.0891	0.617
37.1591	0.618
37.2292	0.62
37.2993	0.626
37.3694	0.629
37.4394	0.635
37.5095	0.64
37.5796	0.644
37.6496	0.649
37.7197	0.649
37.7898	0.649
37.8599	0.649
37.9299	0.649
38	0.651
