Infrared Spectrum: PIPERIDINE
Formula: C5 H11 N
CAS: 110-89-4
State: VAPOR (0.5 MICROLITER AT 150 C)
Boiling point: 106 C
Class: COBLENTZ
Instrument: NICOLET FTIR
Instrument parameters: Hg-Cd-Te DETECTOR - TYPE A, DEAD BELOW 680 CM^-^1, LOW S/N 710 - 680
Sampling: TRANSMISSION
Path length: 0.2 CM x 30 CM GOLD-PLATED LIGHT PIPE. HELIUM CARRIER. INTERFEROGRAMS CO-ADDED FOR FULL TRANSIT TIME.
Resolution: 4 CM^-^1
Origin: MONSANTO (JOHN J. FREEMAN)
1/CM	TRANSMITTANCE
709.212	0.575
718.424	0.3531
727.635	0.2561
736.847	0.1911
746.059	0.326
755.271	0.423
764.482	0.7037
773.694	0.9099
782.906	0.944
792.117	0.934
801.329	0.932
810.541	0.925
819.753	0.936
828.964	0.906
838.176	0.815
847.388	0.738
856.599	0.687
865.811	0.7269
875.023	0.777
884.234	0.831
893.446	0.863
902.658	0.892
911.87	0.922
921.081	0.933
930.293	0.926
939.505	0.919
948.716	0.924
957.928	0.935
967.14	0.94
976.352	0.946
985.563	0.936
994.775	0.914
1003.99	0.88
1013.2	0.858
1022.41	0.834
1031.62	0.764
1040.83	0.745
1050.05	0.738
1059.26	0.785
1068.47	0.857
1077.68	0.904
1086.89	0.8531
1096.1	0.7261
1105.32	0.6
1114.53	0.564
1123.74	0.603
1132.95	0.6987
1142.16	0.771
1151.37	0.725
1160.59	0.697
1169.8	0.76
1179.01	0.755
1188.22	0.818
1197.43	0.843
1206.64	0.874
1215.86	0.956
1225.07	0.966
1234.28	0.9231
1243.49	0.864
1252.7	0.834
1261.91	0.809
1271.13	0.833
1280.34	0.873
1289.55	0.9
1298.76	0.829
1307.97	0.668
1317.18	0.582
1326.4	0.565
1335.61	0.599
1344.82	0.746
1354.03	0.848
1363.24	0.887
1372.46	0.89
1381.67	0.9
1390.88	0.914
1400.09	0.922
1409.3	0.92
1418.51	0.8222
1427.73	0.672
1436.94	0.57
1446.15	0.419
1455.36	0.5009
1464.57	0.591
1473.78	0.7288
1483	0.895
1492.21	0.952
1501.42	0.9899
1510.63	0.985
1519.84	0.981
1529.05	0.988
1538.27	0.977
1547.48	0.982
1556.69	0.983
1565.9	0.99
1575.11	0.978
1584.32	0.982
1593.54	0.98
1602.75	0.977
1611.96	0.978
1621.17	0.976
1630.38	0.992
1639.59	0.991
1648.81	0.988
1658.02	0.986
1667.23	0.985
1676.44	0.991
1685.65	0.987
1694.86	0.987
1704.08	0.987
1713.29	0.986
1722.5	0.99
1731.71	0.983
1740.92	0.986
1750.14	0.982
1759.35	0.983
1768.56	0.984
1777.77	0.986
1786.98	0.993
1796.19	0.992
1805.41	0.992
1814.62	0.991
1823.83	0.986
1833.04	0.985
1842.25	0.978
1851.46	0.986
1860.68	0.985
1869.89	0.986
1879.1	0.986
1888.31	0.983
1897.52	0.978
1906.73	0.978
1915.95	0.981
1925.16	0.983
1934.37	0.987
1943.58	0.988
1952.79	0.992
1962	0.99
1971.22	0.987
1980.43	0.987
1989.64	0.985
1998.85	0.984
2008.06	0.9811
2017.27	0.9789
2026.49	0.9854
2035.7	0.987
2044.91	0.992
2054.12	0.993
2063.33	0.9933
2072.55	0.995
2081.76	0.994
2090.97	0.994
2100.18	0.994
2109.39	0.993
2118.6	0.992
2127.82	0.9909
2137.03	0.9879
2146.24	0.987
2155.45	0.9859
2164.66	0.985
2173.87	0.983
2183.09	0.976
2192.3	0.974
2201.51	0.973
2210.72	0.974
2219.93	0.9777
2229.14	0.9819
2238.36	0.982
2247.57	0.981
2256.78	0.983
2265.99	0.9848
2275.2	0.9857
2284.41	0.985
2293.63	0.981
2302.84	0.977
2312.05	0.9754
2321.26	0.9736
2330.47	0.975
2339.68	0.974
2348.9	0.9815
2358.11	0.974
2367.32	0.9675
2376.53	0.9759
2385.74	0.9834
2394.95	0.985
2404.17	0.982
2413.38	0.983
2422.59	0.9803
2431.8	0.9847
2441.01	0.9813
2450.23	0.9807
2459.44	0.9768
2468.65	0.9716
2477.86	0.967
2487.07	0.965
2496.28	0.9671
2505.5	0.9723
2514.71	0.9761
2523.92	0.9779
2533.13	0.976
2542.34	0.973
2551.55	0.97
2560.77	0.9591
2569.98	0.9462
2579.19	0.9237
2588.4	0.9101
2597.61	0.8998
2606.82	0.8821
2616.04	0.8721
2625.25	0.8544
2634.46	0.7942
2643.67	0.8345
2652.88	0.8149
2662.09	0.8009
2671.31	0.769
2680.52	0.7756
2689.73	0.7883
2698.94	0.7881
2708.15	0.7249
2717.36	0.5975
2726.58	0.4973
2735.79	0.3721
2745	0.516
2754.21	0.5075
2763.42	0.543
2772.64	0.4652
2781.85	0.3587
2791.06	0.2943
2800.27	0.2608
2809.48	0.2337
2818.69	0.3164
2827.91	0.3935
2837.12	0.427
2846.33	0.3524
2855.54	0.2621
2864.75	0.2297
2873.96	0.2901
2883.18	0.3601
2892.39	0.4152
2901.6	0.352
2910.81	0.2098
2920.02	0.1581
2929.23	0.0875
2938.45	0.0811
2947.66	0.0732
2956.87	0.0839
2966.08	0.1809
2975.29	0.4203
2984.5	0.8228
2993.72	0.9203
3002.93	0.944
3012.14	0.9606
3021.35	0.966
3030.56	0.967
3039.77	0.967
3048.99	0.9723
3058.2	0.976
3067.41	0.98
3076.62	0.982
3085.83	0.982
3095.04	0.982
3104.26	0.9835
3113.47	0.984
3122.68	0.986
3131.89	0.9846
3141.1	0.9776
3150.32	0.9689
3159.53	0.9617
3168.74	0.9557
3177.95	0.953
3187.16	0.957
3196.37	0.9694
3205.59	0.9852
3214.8	0.99
3224.01	0.9921
3233.22	0.993
3242.43	0.994
3251.64	0.994
3260.86	0.994
3270.07	0.993
3279.28	0.991
3288.49	0.99
3297.7	0.9851
3306.91	0.9801
3316.13	0.9751
3325.34	0.959
3334.55	0.968
3343.76	0.9727
3352.97	0.9768
3362.18	0.9793
3371.4	0.982
3380.61	0.983
3389.82	0.99
3399.03	0.9937
3408.24	0.995
3417.45	0.9954
3426.67	0.996
3435.88	0.995
3445.09	0.993
3454.3	0.987
3463.51	0.983
3472.72	0.9791
3481.94	0.9769
3491.15	0.982
3500.36	0.991
3509.57	0.9924
3518.78	0.9923
3528	0.995
3537.21	0.9927
3546.42	0.9967
3555.63	0.9938
3564.84	0.9898
3574.05	0.99
3583.27	0.9874
3592.48	0.994
3601.69	0.9895
3610.9	0.9964
3620.11	1.003
3629.32	0.9958
3638.54	0.995
3647.75	0.976
3656.96	0.9861
3666.17	0.9826
3675.38	0.9851
3684.59	0.9827
3693.81	0.997
3703.02	0.9944
3712.23	0.9845
3721.44	0.9772
3730.65	0.9764
3739.86	0.9863
3749.08	0.9815
3758.29	0.9804
3767.5	0.983
3776.71	0.9881
3785.92	0.987
3795.13	0.984
3804.35	0.99
3813.56	0.978
3822.77	0.9875
3831.98	0.983
3841.19	0.9811
3850.41	0.9918
3859.62	0.9895
3868.83	0.985
3878.04	0.9818
3887.25	0.992
3896.46	0.9819
3905.68	0.9823
3914.89	0.9832
3924.1	0.981
3933.31	0.977
3942.52	0.974
3951.73	0.9728
3960.95	0.968
3970.16	0.966
3979.37	0.9682
3988.58	0.9721
3997.79	0.9681
4007	0.972
