Infrared Spectrum: Piperidine
Formula: C 5 H 11 N
CAS: 110-89-4
State: gas
Origin: Sadtler Research Labs Under US-EPA Contract
1/CM	ABSORBANCE
450	0
462	0.0202982
474	0.0195351
486	0.0184668
498	0.0216718
510	0.021977
522	0.0460906
534	0.0793614
546	0.129878
558	0.0784457
570	0.0367809
582	0.0212139
594	0.0248767
606	0.0181615
618	0.0186194
630	0.0202982
642	0.0248767
654	0.0326603
666	0.0404438
678	0.0547899
690	0.0787509
702	0.125299
714	0.243426
726	0.312104
738	0.39467
750	0.184515
762	0.0854661
774	0.0360178
786	0.0306762
798	0.0312867
810	0.030371
822	0.0312867
834	0.0453275
846	0.0662362
858	0.102407
870	0.059521
882	0.0509744
894	0.0381545
906	0.0320498
918	0.0267081
930	0.0274712
942	0.0285396
954	0.0277765
966	0.0244189
978	0.0230453
990	0.0265555
1002	0.0322024
1014	0.0392228
1026	0.0454802
1038	0.0650153
1050	0.0625734
1062	0.0496009
1074	0.0337286
1086	0.0393754
1098	0.0755459
1110	0.109885
1122	0.109274
1134	0.0801244
1146	0.0558582
1158	0.0703569
1170	0.0613524
1182	0.0610472
1194	0.047159
1206	0.0386124
1218	0.0231979
1230	0.0215191
1242	0.0364757
1254	0.0436487
1266	0.0477694
1278	0.0392228
1290	0.0340338
1302	0.0483799
1314	0.093097
1326	0.1137
1338	0.10027
1350	0.0557056
1362	0.0344917
1374	0.0334233
1386	0.0314393
1398	0.0296079
1410	0.0286922
1422	0.0569265
1434	0.102254
1446	0.159638
1458	0.128047
1470	0.097065
1482	0.0380019
1494	0.027166
1506	0.0193825
1518	0.0177037
1530	0.0166354
1542	0.0178563
1554	0.0178563
1566	0.0177037
1578	0.0178563
1590	0.0177037
1602	0.018772
1614	0.0193825
1626	0.018772
1638	0.0181615
1650	0.0172458
1662	0.0172458
1674	0.0173985
1686	0.0169406
1698	0.0172458
1710	0.0170932
1722	0.0169406
1734	0.0166354
1746	0.0172458
1758	0.0175511
1770	0.0184668
1782	0.0183142
1794	0.0175511
1806	0.0172458
1818	0.0178563
1830	0.0184668
1842	0.018772
1854	0.0184668
1866	0.0180089
1878	0.0178563
1890	0.0189246
1902	0.0189246
1914	0.0189246
1926	0.0180089
1938	0.0173985
1950	0.0173985
1962	0.0170932
1974	0.0175511
1986	0.0184668
1998	0.0190773
2010	0.0195351
2022	0.0196877
2034	0.0184668
2046	0.0175511
2058	0.0173985
2070	0.0173985
2082	0.0172458
2094	0.0172458
2106	0.0173985
2118	0.0177037
2130	0.0177037
2142	0.0181615
2154	0.0183142
2166	0.0186194
2178	0.018772
2190	0.0198403
2202	0.0198403
2214	0.019993
2226	0.0189246
2238	0.018772
2250	0.018772
2262	0.0181615
2274	0.0177037
2286	0.0177037
2298	0.0184668
2310	0.0184668
2322	0.0192299
2334	0.0193825
2346	0.0181615
2358	0.0186194
2370	0.0172458
2382	0.0169406
2394	0.0180089
2406	0.0178563
2418	0.0178563
2430	0.0180089
2442	0.0178563
2454	0.0180089
2466	0.0181615
2478	0.0192299
2490	0.0201456
2502	0.0201456
2514	0.0180089
2526	0.0173985
2538	0.0169406
2550	0.0175511
2562	0.018772
2574	0.0224348
2586	0.027166
2598	0.0309815
2610	0.0337286
2622	0.0358652
2634	0.0428857
2646	0.0386124
2658	0.0473116
2670	0.0541794
2682	0.0544846
2694	0.054332
2706	0.0615051
2718	0.0979808
2730	0.146971
2742	0.199472
2754	0.137204
2766	0.130336
2778	0.179021
2790	0.260366
2802	0.309967
2814	0.323703
2826	0.224501
2838	0.187568
2850	0.269066
2862	0.361857
2874	0.294858
2886	0.220075
2898	0.211986
2910	0.415731
2922	0.790256
2934	1.39966
2946	1.52618
2958	0.92517
2970	0.34919
2982	0.0650153
2994	0.0283869
3006	0.0225875
3018	0.0215191
3030	0.0206034
3042	0.0206034
3054	0.0201456
3066	0.0190773
3078	0.0189246
3090	0.0193825
3102	0.0189246
3114	0.0190773
3126	0.0183142
3138	0.0189246
3150	0.0196877
3162	0.021977
3174	0.0236558
3186	0.0238084
3198	0.0212139
3210	0.0181615
3222	0.0172458
3234	0.0170932
3246	0.0175511
3258	0.0175511
3270	0.016788
3282	0.0180089
3294	0.018772
3306	0.0195351
3318	0.0213665
3330	0.0230453
3342	0.0218244
3354	0.0212139
3366	0.0186194
3378	0.0190773
3390	0.0195351
3402	0.0183142
3414	0.0180089
3426	0.0181615
3438	0.0178563
3450	0.0180089
3462	0.0190773
3474	0.0204508
3486	0.020756
3498	0.0201456
3510	0.0195351
3522	0.0183142
3534	0.0180089
3546	0.0183142
3558	0.0181615
3570	0.0183142
3582	0.0183142
3594	0.0192299
3606	0.018772
3618	0.0184668
3630	0.0190773
3642	0.0192299
3654	0.0201456
3666	0.0192299
3678	0.0193825
3690	0.0192299
3702	0.0193825
3714	0.0198403
3726	0.0196877
3738	0.0209087
3750	0.0198403
3762	0.0201456
3774	0.0196877
3786	0.0196877
3798	0.0190773
3810	0.0196877
3822	0.0196877
3834	0.0181615
3846	0.0186194
3858	0.0196877
3870	0.0193825
3882	0.0178563
3894	0.019993
3906	0.0201456
3918	0.0196877
3930	0.0201456
3942	0.0190773
3954	0.020756
3966	0.0202982
