Infrared Spectrum: Furan, 2-methyl-
Formula: C 5 H 6 O
CAS: 534-22-5
State: gas
Origin: Sadtler Research Labs Under US-EPA Contract
1/CM	ABSORBANCE
450	0.00121332
462	0.00279591
474	0.00295417
486	0.00152984
498	0.000105506
510	0.0043785
522	0.00385097
534	0.00105506
546	0.00485328
558	0.00569732
570	0.0160897
582	0.0280118
594	0.0428354
606	0.0311243
618	0.0301747
630	0.017303
642	0.0147708
654	0.012397
666	0.00807121
678	0.0112364
690	0.0475832
702	0.13874
714	0.204365
726	0.52753
738	0.210854
750	0.136894
762	0.057237
774	0.0618265
786	0.0803428
798	0.0676821
810	0.06151
822	0.0285394
834	0.00954829
846	0.0110254
858	0.0119749
870	0.0207319
882	0.03545
894	0.0713221
906	0.120435
918	0.0921595
930	0.103343
942	0.0422552
954	0.0214705
966	0.0202572
978	0.0225783
990	0.0470029
1002	0.116479
1014	0.0887833
1026	0.108777
1038	0.0398813
1050	0.0166699
1062	0.0194659
1074	0.0494823
1086	0.053175
1098	0.0546521
1110	0.0149819
1122	0.0152456
1134	0.0926343
1146	0.107458
1158	0.12397
1170	0.0377184
1182	0.016881
1194	0.0338147
1206	0.065572
1218	0.0816616
1230	0.114421
1242	0.0809759
1254	0.0555489
1266	0.0188856
1278	0.00896801
1290	0.00685789
1302	0.0061721
1314	0.00754368
1326	0.00859874
1338	0.0119222
1350	0.0144543
1362	0.0234751
1374	0.0276953
1386	0.0330234
1398	0.0311243
1410	0.0202044
1422	0.0223673
1434	0.0469502
1446	0.0888361
1458	0.0678404
1470	0.0612462
1482	0.0435212
1494	0.0865677
1506	0.128559
1518	0.121912
1530	0.0853016
1542	0.0318628
1554	0.0309133
1566	0.0544411
1578	0.0613517
1590	0.0905241
1602	0.079657
1614	0.0643587
1626	0.0343422
1638	0.0148763
1650	0.0152456
1662	0.00970655
1674	0.00722716
1686	0.0137685
1698	0.0160897
1710	0.0172502
1722	0.00590834
1734	0.00284866
1746	0.00163534
1758	0.00110781
1770	0.00116057
1782	0.00105506
1794	0.00110781
1806	0.000949554
1818	0.00100231
1830	0.00147708
1842	0.00142433
1854	0.000844048
1866	0.000949554
1878	0.000844048
1890	0.00052753
1902	0.000369271
1914	0.000316518
1926	0.000738542
1938	0.000791295
1950	0.000791295
1962	0.00110781
1974	0.000738542
1986	0.00163534
1998	0.00216287
2010	0.00163534
2022	0.00152984
2034	0.0025849
2046	0.00337619
2058	0.00300692
2070	0.00253214
2082	0.00300692
2094	0.00253214
2106	0.00189911
2118	0.00105506
2130	0.000369271
2142	0.000896801
2154	0.0016881
2166	0.00195186
2178	0.00142433
2190	0.000369271
2202	0.000474777
2214	0.00226838
2226	0.00327069
2238	0.00480052
2250	0.00427299
2262	0.00284866
2274	0.00184636
2286	0.0017936
2298	0.00221563
2310	0.00274316
2322	0.00184636
2334	0.000685789
2346	0.00232113
2358	0.00353445
2370	0.00506429
2382	0.00453676
2394	0.00311243
2406	0.0026904
2418	0.00263765
2430	0.0025849
2442	0.00311243
2454	0.00211012
2466	0.00205737
2478	0.00205737
2490	0.00126607
2502	0.000633036
2514	0.00105506
2526	0.000738542
2538	0.00142433
2550	0.00121332
2562	0.00121332
2574	0.00216287
2586	0.00369271
2598	0.00411473
2610	0.00321793
2622	0.00226838
2634	0.0017936
2646	0.0025849
2658	0.00279591
2670	0.00290142
2682	0.00237389
2694	0.00242664
2706	0.00274316
2718	0.00290142
2730	0.00400923
2742	0.00654137
2754	0.00727991
2766	0.00569732
2778	0.00353445
2790	0.00305967
2802	0.00411473
2814	0.00585558
2826	0.00991756
2838	0.0125552
2850	0.0158259
2862	0.0302802
2874	0.0405143
2886	0.0503264
2898	0.0440488
2910	0.0424662
2922	0.0732739
2934	0.100916
2946	0.114527
2958	0.0811869
2970	0.0640421
2982	0.0645697
2994	0.056393
3006	0.0398813
3018	0.0276953
3030	0.0160897
3042	0.0136103
3054	0.0146126
3066	0.0145598
3078	0.0137158
3090	0.013874
3102	0.0180415
3114	0.0287504
3126	0.0302802
3138	0.0266403
3150	0.0146653
3162	0.0113946
3174	0.00780744
3186	0.00226838
3198	0.00174085
3210	0.00174085
3222	0.00174085
3234	0.00147708
3246	0.00105506
3258	0.00105506
3270	0.00147708
3282	0.000896801
3294	0.00052753
3306	0.000633036
3318	0.00195186
3330	0.00110781
3342	0.00126607
3354	0.00116057
3366	0.000422024
3378	0.00131883
3390	0.000844048
3402	0.00121332
3414	0.00163534
3426	0.000844048
3438	0.000949554
3450	0.000316518
3462	0.000685789
3474	0.000633036
3486	0.00116057
3498	0.000211012
3510	0.000896801
3522	0.00147708
3534	0.00131883
3546	0.000896801
3558	0.00189911
3570	0.00205737
3582	0.0016881
3594	0.00247939
3606	0.000949554
3618	0.00158259
3630	0.00110781
3642	0.00200461
3654	0.0016881
3666	0.00216287
3678	0.00142433
3690	0.00216287
3702	0.000844048
3714	0.00311243
3726	0.00195186
3738	0.00263765
3750	0.00195186
3762	0.00284866
3774	0.00321793
3786	0.00279591
3798	0.0026904
3810	0.0025849
3822	0.00253214
3834	0.00237389
3846	0.00247939
3858	0.00242664
3870	0.00226838
3882	0.00253214
3894	0.00237389
3906	0.00205737
3918	0.00221563
3930	0.00263765
3942	0.0025849
3954	0.00174085
3966	0.00174085
