Infrared Spectrum: 2-Methylpentane
Formula: C6 H14
CAS: 107-83-5
State: LIQUID (NEAT)
Class: COBLENTZ III
Instrument: DOW KBr FOREPRISM-GRATING
Instrument parameters: BLAZED AT 3.5, 12.0, 20.0 MICRON AND CHANGED AT 5.0, 7.5, 14.9 MICRON
Sampling: TRANSMISSION
Path length: 0.011 CM
Resolution: 2
Origin: DOW CHEMICAL COMPANY
1/CM	TRANSMITTANCE
3790	0.8318
3781	0.8277
3772	0.821
3763	0.8193
3754	0.823
3745	0.8289
3736	0.8352
3727	0.8418
3718	0.8488
3709	0.8559
3700	0.862
3691	0.8578
3682	0.8547
3673	0.8608
3664	0.8671
3655	0.871
3646	0.8684
3637	0.8667
3628	0.8656
3619	0.8648
3610	0.8658
3601	0.8681
3592	0.8721
3583	0.8786
3574	0.8823
3565	0.8825
3556	0.883
3547	0.8847
3538	0.886
3529	0.8865
3520	0.8868
3511	0.8859
3502	0.8849
3493	0.8834
3484	0.882
3475	0.8797
3466	0.8767
3457	0.8739
3448	0.8712
3439	0.8681
3430	0.864
3421	0.8531
3412	0.8198
3403	0.8015
3394	0.7983
3385	0.8028
3376	0.8115
3367	0.8165
3358	0.8151
3349	0.8044
3340	0.7851
3331	0.7868
3322	0.8017
3313	0.809
3304	0.8101
3295	0.8021
3286	0.7907
3277	0.7878
3268	0.7945
3259	0.8025
3250	0.8055
3241	0.8047
3232	0.7891
3223	0.7656
3214	0.7399
3205	0.6711
3196	0.6173
3187	0.5898
3178	0.5772
3169	0.5748
3160	0.58
3151	0.5933
3142	0.6112
3133	0.6315
3124	0.6458
3115	0.6562
3106	0.6624
3097	0.6588
3088	0.6319
3079	0.6043
3070	0.571
3061	0.5312
3052	0.4947
3043	0.457
3034	0.3679
3025	0.2985
3016	0.2357
3007	0.1664
2998	0.1032
2989	0.031
2980	0.0113
2971	0.0061
2962	0.0042
2953	0.0045
2944	0.0048
2935	0.005
2926	0.0052
2917	0.0056
2908	0.0059
2899	0.0061
2890	0.0064
2881	0.0067
2872	0.007
2863	0.0072
2854	0.0076
2845	0.0078
2836	0.0081
2827	0.0332
2818	0.0612
2809	0.1331
2800	0.2189
2791	0.2673
2782	0.3132
2773	0.3829
2764	0.4553
2755	0.4617
2746	0.5099
2737	0.499
2728	0.3764
2719	0.366
2710	0.4059
2701	0.5326
2692	0.5894
2683	0.6224
2674	0.6456
2665	0.6555
2656	0.6553
2647	0.6511
2638	0.5999
2629	0.5542
2620	0.5499
2611	0.5644
2602	0.595
2593	0.6332
2584	0.6608
2575	0.6915
2566	0.7215
2557	0.7475
2548	0.7826
2539	0.8136
2530	0.8149
2521	0.8132
2512	0.806
2503	0.8026
2494	0.8034
2485	0.8153
2476	0.8221
2467	0.8278
2458	0.8325
2449	0.8366
2440	0.8404
2431	0.8421
2422	0.8367
2413	0.8007
2404	0.7856
2395	0.7856
2386	0.796
2377	0.8138
2368	0.8221
2359	0.8247
2350	0.8228
2341	0.8153
2332	0.8021
2323	0.7971
2314	0.8018
2305	0.8139
2296	0.8347
2287	0.8392
2278	0.8291
2269	0.8315
2260	0.8357
2251	0.8427
2242	0.8504
2233	0.8514
2224	0.8525
2215	0.8539
2206	0.8552
2197	0.8443
2188	0.8345
2179	0.8362
2170	0.8375
2161	0.8503
2152	0.858
2143	0.8604
2134	0.8637
2125	0.8664
2116	0.8697
2107	0.8725
2098	0.874
2089	0.8755
2080	0.8771
2071	0.8792
2062	0.8806
2053	0.8818
2044	0.8755
2035	0.8715
2026	0.8734
2017	0.8842
2008	0.8895
1999	0.8924
1990	0.8923
1981	0.8806
1972	0.8844
1963	0.8893
1954	0.8906
1945	0.8936
1936	0.8945
1927	0.893
1918	0.8793
1909	0.8711
1900	0.8785
1891	0.8837
1882	0.8848
1873	0.8857
1864	0.8864
1855	0.8862
1846	0.8834
1837	0.8765
1828	0.8762
1819	0.8782
1810	0.8796
1801	0.8816
1792	0.8818
1783	0.8688
1774	0.8641
1765	0.863
1756	0.864
1747	0.8618
1738	0.857
1729	0.8462
1720	0.8301
1711	0.8168
1702	0.8089
1693	0.8118
1684	0.8056
1675	0.8025
1666	0.801
1657	0.7991
1648	0.7964
1639	0.7989
1630	0.8065
1621	0.8115
1612	0.8139
1603	0.8106
1594	0.8015
1585	0.7924
1576	0.7849
1567	0.7826
1558	0.7725
1549	0.7558
1540	0.7388
1531	0.6925
1522	0.6245
1513	0.5808
1504	0.4552
1495	0.3238
1486	0.133
1477	0.0132
1468	0.0077
1459	0.0051
1450	0.0045
1441	0.0611
1432	0.2284
1423	0.3362
1414	0.3845
1405	0.3602
1396	0.1604
1387	0.0154
1378	0.0137
1369	0.0104
1360	0.0535
1351	0.3418
1342	0.3597
1333	0.3392
1324	0.4669
1315	0.6156
1306	0.6286
1297	0.6582
1288	0.6976
1279	0.6891
1270	0.5687
1261	0.6878
1252	0.6985
1243	0.4798
1234	0.7111
1225	0.7618
1216	0.7808
1207	0.7925
1198	0.7921
1189	0.7544
1180	0.5705
1171	0.1488
1162	0.3559
1153	0.397
1144	0.2834
1135	0.6521
1126	0.7758
1117	0.825
1108	0.8371
1099	0.8425
1090	0.8464
1081	0.8412
1072	0.7644
1063	0.7199
1054	0.7985
1045	0.8107
1036	0.7108
1027	0.7815
1018	0.7953
1009	0.7636
1000	0.8217
991	0.8304
982	0.8282
973	0.7932
964	0.6621
955	0.3562
946	0.6382
937	0.5638
928	0.6931
919	0.4151
910	0.714
901	0.7651
892	0.6335
883	0.6201
874	0.7737
865	0.7751
856	0.5866
847	0.7758
838	0.7947
829	0.8097
820	0.6619
811	0.597
802	0.8275
793	0.866
784	0.8728
775	0.8737
766	0.8717
757	0.8453
748	0.6266
739	0.1961
730	0.3864
721	0.7374
712	0.8228
703	0.8611
694	0.8765
685	0.8889
676	0.8977
667	0.8989
658	0.8939
649	0.8894
640	0.888
631	0.8874
622	0.8878
613	0.891
604	0.8918
595	0.8918
586	0.8856
577	0.8827
568	0.879
559	0.8774
550	0.8468
541	0.848
532	0.8628
523	0.8673
514	0.8668
505	0.8633
496	0.8581
487	0.8474
478	0.8416
469	0.8365
460	0.8312
451	0.8251
