Infrared Spectrum: PENTANE, 2-METHYL-
Formula: C6 H14
CAS: 107-83-5
State: SOLUTION (10% IN CCl4 FOR 3800-1300, 10% IN CS2 FOR 1300-650, AND 10% CCl4 FOR 650-240 CM^-^1) VERSUS SOLVENT
Class: COBLENTZ III
Instrument: PERKIN-ELMER 521 (GRATING)
Instrument parameters: FILTERS AT 3150, 2500, 2000, 1150, 700, 410; GRATING CHANGES AT 2000, 630 CM^-^1
Sampling: TRANSMISSION
Path length: 0.012, 0.012,AND 0.011 CM (CsBr CELL)
Resolution: 4
Origin: DOW CORNING CORP.
1/CM	TRANSMITTANCE
235.795	0.947
244.744	0.942
253.693	0.938
262.642	0.935
271.59	0.938
280.539	0.942
289.488	0.938
298.437	0.93
307.386	0.917
316.335	0.91
325.284	0.909
334.233	0.909
343.181	0.909
352.13	0.919
361.079	0.912
370.028	0.914
378.977	0.907
387.926	0.917
396.875	0.926
405.824	0.931
414.772	0.94
423.721	0.949
432.67	0.944
441.619	0.937
450.568	0.937
459.517	0.931
468.466	0.931
477.414	0.924
486.363	0.93
495.312	0.924
504.261	0.928
513.21	0.928
522.159	0.912
531.108	0.912
540.057	0.912
549.005	0.914
557.954	0.914
566.903	0.921
575.852	0.924
584.801	0.931
593.75	0.935
602.699	0.931
611.648	0.935
620.596	0.928
629.545	0.931
638.494	0.93
647.443	0.926
656.392	0.875
665.341	0.865
674.29	0.889
683.238	0.888
692.187	0.888
701.136	0.889
710.085	0.886
719.034	0.877
727.983	0.8211
736.932	0.692
745.881	0.8369
754.829	0.879
763.778	0.893
772.727	0.891
781.676	0.888
790.625	0.884
799.574	0.879
808.523	0.847
817.472	0.8259
826.42	0.872
835.369	0.884
844.318	0.893
853.267	0.825
862.216	0.858
871.165	0.865
880.114	0.839
889.063	0.84
898.011	0.874
906.96	0.861
915.909	0.767
924.858	0.863
933.807	0.839
942.756	0.839
951.705	0.763
960.653	0.8329
969.602	0.87
978.551	0.874
987.5	0.868
996.449	0.86
1005.4	0.832
1014.35	0.846
1023.3	0.84
1032.24	0.819
1041.19	0.846
1050.14	0.84
1059.09	0.823
1068.04	0.826
1076.99	0.846
1085.94	0.847
1094.89	0.856
1103.84	0.853
1112.78	0.853
1121.73	0.847
1130.68	0.823
1139.63	0.7271
1148.58	0.755
1157.53	0.743
1166.48	0.631
1175.43	0.804
1184.38	0.856
1193.32	0.865
1202.27	0.87
1211.22	0.865
1220.17	0.86
1229.12	0.835
1238.07	0.802
1247.02	0.832
1255.97	0.825
1264.92	0.805
1273.86	0.826
1282.81	0.825
1291.76	0.8
1300.71	0.832
1309.66	0.861
1318.61	0.8041
1327.56	0.788
1336.51	0.788
1345.45	0.777
1354.4	0.6321
1363.35	0.276
1372.3	0.4594
1381.25	0.3605
1390.2	0.7339
1399.15	0.772
1408.1	0.779
1417.05	0.77
1425.99	0.725
1434.94	0.6101
1443.89	0.3891
1452.84	0.187
1461.79	0.0801
1470.74	0.3596
1479.69	0.7009
1488.64	0.776
1497.59	0.823
1506.53	0.853
1515.48	0.861
1524.43	0.863
1533.38	0.865
1542.33	0.858
1551.28	0.87
1560.23	0.877
1569.18	0.877
1578.13	0.879
1587.07	0.884
1596.02	0.884
1604.97	0.886
1613.92	0.884
1622.87	0.884
1631.82	0.884
1640.77	0.884
1649.72	0.881
1658.67	0.879
1667.61	0.881
1676.56	0.882
1685.51	0.882
1694.46	0.882
1703.41	0.886
1712.36	0.888
1721.31	0.893
1730.26	0.895
1739.21	0.895
1748.15	0.895
1757.1	0.893
1766.05	0.893
1775	0.9
1783.95	0.898
1792.9	0.9
1801.85	0.903
1810.8	0.902
1819.74	0.898
1828.69	0.902
1837.64	0.903
1846.59	0.902
1855.54	0.903
1864.49	0.902
1873.44	0.9
1882.39	0.9
1891.34	0.903
1900.28	0.902
1909.23	0.9
1918.18	0.903
1927.13	0.902
1936.08	0.903
1945.03	0.902
1953.98	0.905
1962.93	0.9
1971.88	0.902
1980.82	0.903
1989.77	0.905
1998.72	0.903
2007.67	0.905
2016.62	0.903
2025.57	0.902
2034.52	0.902
2043.47	0.902
2052.42	0.902
2061.36	0.9001
2070.31	0.9008
2079.26	0.9002
2088.21	0.8992
2097.16	0.898
2106.11	0.898
2115.06	0.896
2124.01	0.896
2132.96	0.896
2141.9	0.895
2150.85	0.893
2159.8	0.8917
2168.75	0.8882
2177.7	0.889
2186.65	0.888
2195.6	0.8895
2204.55	0.8941
2213.5	0.891
2222.44	0.891
2231.39	0.891
2240.34	0.8895
2249.29	0.886
2258.24	0.884
2267.19	0.884
2276.14	0.884
2285.09	0.891
2294.04	0.891
2302.98	0.8837
2311.93	0.882
2320.88	0.8819
2329.83	0.8852
2338.78	0.8858
2347.73	0.884
2356.68	0.8838
2365.63	0.882
2374.57	0.8807
2383.52	0.87
2392.47	0.872
2401.42	0.8707
2410.37	0.874
2419.32	0.8801
2428.27	0.882
2437.22	0.884
2446.17	0.882
2455.11	0.878
2464.06	0.867
2473.01	0.8711
2481.96	0.867
2490.91	0.8675
2499.86	0.8701
2508.81	0.87
2517.76	0.87
2526.71	0.8646
2535.65	0.868
2544.6	0.865
2553.55	0.8601
2562.5	0.851
2571.45	0.8473
2580.4	0.8383
2589.35	0.8303
2598.3	0.823
2607.25	0.8182
2616.19	0.8134
2625.14	0.812
2634.09	0.8166
2643.04	0.8307
2651.99	0.849
2660.94	0.8382
2669.89	0.832
2678.84	0.83
2687.79	0.8183
2696.73	0.8054
2705.68	0.7885
2714.63	0.7566
2723.58	0.7464
2732.53	0.7785
2741.48	0.8017
2750.43	0.7937
2759.38	0.783
2768.33	0.7668
2777.27	0.7497
2786.22	0.7211
2795.17	0.6954
2804.12	0.6336
2813.07	0.5891
2822.02	0.5178
2830.97	0.394
2839.92	0.1542
2848.87	0.1804
2857.81	0.0487
2866.76	0.0051
2875.71	0.0548
2884.66	0.029
2893.61	0.021
2902.56	0.012
2911.51	0.002
2920.46	0
2929.4	0
2938.35	0
2947.3	0.001
2956.25	0.0029
2965.2	0.0179
2974.15	0.1187
2983.1	0.3873
2992.05	0.5103
3001	0.5888
3009.94	0.6722
3018.89	0.7134
3027.84	0.745
3036.79	0.7574
3045.74	0.7787
3054.69	0.7876
3063.64	0.8011
3072.59	0.812
3081.54	0.8176
3090.48	0.826
3099.43	0.828
3108.38	0.826
3117.33	0.8295
3126.28	0.8258
3135.23	0.819
3144.18	0.814
3153.13	0.814
3162.08	0.816
3171.02	0.8174
3179.97	0.8198
3188.92	0.826
3197.87	0.8344
3206.82	0.8503
3215.77	0.8566
3224.72	0.8643
3233.67	0.8723
3242.62	0.875
3251.56	0.875
3260.51	0.875
3269.46	0.8738
3278.41	0.872
3287.36	0.8741
3296.31	0.879
3305.26	0.875
3314.21	0.874
3323.16	0.872
3332.1	0.87
3341.05	0.872
3350	0.877
3358.95	0.881
3367.9	0.879
3376.85	0.8789
3385.8	0.875
3394.75	0.877
3403.69	0.881
3412.64	0.8819
3421.59	0.8868
3430.54	0.889
3439.49	0.888
3448.44	0.888
3457.39	0.8897
3466.34	0.889
3475.29	0.891
3484.23	0.891
3493.18	0.893
3502.13	0.8934
3511.08	0.895
3520.03	0.896
3528.98	0.896
3537.93	0.896
3546.88	0.8938
3555.83	0.898
3564.77	0.906
3573.72	0.9093
3582.67	0.8968
3591.62	0.893
3600.57	0.8958
3609.52	0.893
3618.47	0.8906
3627.42	0.889
3636.37	0.8927
3645.31	0.8887
3654.26	0.893
3663.21	0.891
3672.16	0.891
3681.11	0.8886
3690.06	0.8912
3699.01	0.8918
3707.96	0.889
3716.91	0.891
3725.85	0.893
3734.8	0.9
3743.75	0.888
3752.7	0.8901
3761.65	0.8879
3770.6	0.889
3779.55	0.889
3788.5	0.889
