Infrared Spectrum: 2-Methylpentane
Formula: C 6 H 14
CAS: 107-83-5
State: gas
Instrument: HP-GC/MS/IRD
Origin: NIST Mass Spectrometry Data Center
1/CM	ABSORBANCE
550	0.0008662
562	0.0005063
574	0.0003294
586	0.0002867
598	0.0001769
610	6.1e-05
622	5.49e-05
634	0.0001403
646	6.1e-05
658	0.000122
670	0.0001037
682	0.0001342
694	0.0001281
706	0.0001159
718	0.0002867
730	0.0005002
742	0.0005246
754	0.0002806
766	0.0001891
778	0.0001403
790	0.0001586
802	0.000183
814	0.0002501
826	0.0003172
838	0.0002013
850	0.0002074
862	0.0002135
874	0.0002806
886	0.0002379
898	0.0002501
910	0.0003843
922	0.0004941
934	0.0006161
946	0.0007198
958	0.0006466
970	0.0003355
982	0.0001708
994	7.32e-05
1006	0.0001525
1018	0.0002135
1030	0.0002989
1042	0.0002623
1054	0.000244
1066	0.0002257
1078	0.0002501
1090	0.0001403
1102	0.0002562
1114	0.000305
1126	0.000488
1138	0.000793
1150	0.0011956
1162	0.0015555
1174	0.0012139
1186	0.0006771
1198	0.0003599
1210	0.0002745
1222	0.0003294
1234	0.0005368
1246	0.00061
1258	0.0005673
1270	0.000549
1282	0.0005795
1294	0.0005551
1306	0.0006771
1318	0.0010187
1330	0.0013725
1342	0.0017385
1354	0.0024766
1366	0.0036295
1378	0.0049288
1390	0.0046604
1402	0.0028426
1414	0.0013908
1426	0.0014274
1438	0.0026108
1450	0.0047702
1462	0.0063806
1474	0.0062586
1486	0.0039833
1498	0.002013
1510	0.0009516
1522	0.0006039
1534	0.0004209
1546	0.0003721
1558	0.0003477
1570	0.000305
1582	0.0003172
1594	0.0002623
1606	0.0002562
1618	0.0002379
1630	0.0002135
1642	0.0002562
1654	0.0002501
1666	0.0002074
1678	0.0002135
1690	0.0002074
1702	0.0001586
1714	0.0001891
1726	0.0001403
1738	0.0001281
1750	0.0001037
1762	0.0001159
1774	8.54e-05
1786	9.15e-05
1798	9.15e-05
1810	5.49e-05
1822	7.32e-05
1834	5.49e-05
1846	7.32e-05
1858	9.76e-05
1870	8.54e-05
1882	6.1e-05
1894	3.66e-05
1906	5.49e-05
1918	4.27e-05
1930	2.44e-05
1942	2.44e-05
1954	3.05e-05
1966	1.83e-05
1978	3.05e-05
1990	4.27e-05
2002	3.66e-05
2014	3.66e-05
2026	4.88e-05
2038	2.44e-05
2050	1.83e-05
2062	2.44e-05
2074	3.66e-05
2086	1.83e-05
2098	6.1e-06
2110	4.88e-05
2122	4.27e-05
2134	3.05e-05
2146	2.44e-05
2158	0
2170	5.49e-05
2182	6.1e-05
2194	9.76e-05
2206	7.93e-05
2218	5.49e-05
2230	3.05e-05
2242	3.05e-05
2254	3.66e-05
2266	3.66e-05
2278	3.66e-05
2290	1.83e-05
2302	3.66e-05
2314	6.1e-05
2326	7.32e-05
2338	7.32e-05
2350	5.49e-05
2362	8.54e-05
2374	7.93e-05
2386	6.1e-05
2398	9.15e-05
2410	0.0001342
2422	6.71e-05
2434	4.88e-05
2446	6.1e-06
2458	4.88e-05
2470	3.05e-05
2482	3.05e-05
2494	7.93e-05
2506	7.93e-05
2518	8.54e-05
2530	9.15e-05
2542	5.49e-05
2554	0.0001098
2566	0.0001464
2578	0.0002013
2590	0.0002928
2602	0.0003599
2614	0.0003843
2626	0.0004087
2638	0.0003904
2650	0.0003904
2662	0.0003599
2674	0.0003843
2686	0.0004453
2698	0.0004941
2710	0.0006649
2722	0.000854
2734	0.0009821
2746	0.0010736
2758	0.0010431
2770	0.0011041
2782	0.0013176
2794	0.0016165
2806	0.002013
2818	0.0027694
2830	0.0041541
2842	0.0067771
2854	0.0107238
2866	0.0170983
2878	0.0237778
2890	0.0273097
2902	0.0289079
2914	0.0323727
2926	0.036539
2938	0.0410347
2950	0.0496418
2962	0.061
2974	0.0498492
2986	0.0235033
2998	0.0083021
3010	0.0041541
3022	0.0029341
3034	0.0023119
3046	0.0019581
3058	0.0016775
3070	0.0014945
3082	0.0013664
3094	0.0012322
3106	0.0011041
3118	0.0008723
3130	0.0007991
3142	0.0008357
3154	0.0008235
3166	0.0007991
3178	0.0007259
3190	0.0006771
3202	0.0005673
3214	0.0004087
3226	0.0002867
3238	0.0002196
3250	0.0001342
3262	0.0001647
3274	0.0001098
3286	0.0001403
3298	0.0001647
3310	0.0001464
3322	0.0001403
3334	0.0001586
3346	0.0001769
3358	0.0001708
3370	0.0001342
3382	0.0001403
3394	0.0001403
3406	0.0001708
3418	0.0001403
3430	0.0001098
3442	5.49e-05
3454	0
3466	7.93e-05
3478	9.76e-05
3490	0.0001281
3502	0.0001647
3514	6.71e-05
3526	7.32e-05
3538	9.76e-05
3550	9.15e-05
3562	0.0001342
3574	0.0001159
3586	0.0001098
3598	0.0002135
3610	0.0001647
3622	0.0001769
3634	0.0002074
3646	0.000183
3658	0.0002318
3670	0.0002135
3682	0.0002623
3694	0.0002013
3706	0.0002074
3718	0.0001769
3730	0.000183
3742	0.0002684
3754	0.0002379
3766	0.0002562
3778	0.0002745
3790	0.0003233
3802	0.000305
3814	0.000305
3826	0.0003111
3838	0.0003355
