Infrared Spectrum: 2-Methyl-1,2-propanediamine
Formula: C4 H12 N2
CAS: 811-93-8
State: LIQUID (NEAT)
Class: COBLENTZ III
Instrument: DOW KBr FOREPRISM-GRATING
Instrument parameters: BLAZED AT 3.5, 12.0, 20.0 MICRON AND CHANGED AT 5.0, 7.5, 14.9 MICRON
Sampling: TRANSMISSION
Path length: CAPILLARY
Resolution: 2
Origin: DOW CHEMICAL COMPANY
1/CM	TRANSMITTANCE
3792	0.8925
3783	0.8927
3774	0.8928
3765	0.8925
3756	0.8923
3747	0.892
3738	0.8917
3729	0.8915
3720	0.8912
3711	0.8902
3702	0.8887
3693	0.8852
3684	0.8808
3675	0.8763
3666	0.8732
3657	0.872
3648	0.871
3639	0.8692
3630	0.8671
3621	0.8649
3612	0.8621
3603	0.8578
3594	0.8536
3585	0.8489
3576	0.8427
3567	0.8364
3558	0.8294
3549	0.8221
3540	0.8145
3531	0.8068
3522	0.7991
3513	0.7911
3504	0.7821
3495	0.7724
3486	0.7607
3477	0.7489
3468	0.7364
3459	0.7236
3450	0.71
3441	0.6957
3432	0.6757
3423	0.6551
3414	0.6254
3405	0.5777
3396	0.5022
3387	0.4323
3378	0.3953
3369	0.3712
3360	0.3484
3351	0.3387
3342	0.3444
3333	0.3654
3324	0.3734
3315	0.3712
3306	0.3566
3297	0.3416
3288	0.3322
3279	0.3312
3270	0.3462
3261	0.3718
3252	0.4095
3243	0.43
3234	0.4422
3225	0.451
3216	0.4612
3207	0.4722
3198	0.4795
3189	0.4893
3180	0.5133
3171	0.5471
3162	0.5845
3153	0.6186
3144	0.6555
3135	0.6805
3126	0.7042
3117	0.724
3108	0.7396
3099	0.7542
3090	0.7631
3081	0.7712
3072	0.7786
3063	0.784
3054	0.7871
3045	0.7887
3036	0.7892
3027	0.7861
3018	0.7795
3009	0.7628
3000	0.7065
2991	0.6
2982	0.3782
2973	0.1434
2964	0.0423
2955	0.0297
2946	0.0938
2937	0.1206
2928	0.1174
2919	0.1177
2910	0.1468
2901	0.1517
2892	0.1563
2883	0.2194
2874	0.2463
2865	0.1912
2856	0.2419
2847	0.2906
2838	0.3442
2829	0.4044
2820	0.4944
2811	0.5703
2802	0.6397
2793	0.725
2784	0.7551
2775	0.7711
2766	0.7822
2757	0.7865
2748	0.7894
2739	0.7915
2730	0.7932
2721	0.7961
2712	0.8001
2703	0.8097
2694	0.8194
2685	0.8294
2676	0.8398
2667	0.8474
2658	0.8554
2649	0.8641
2640	0.8714
2631	0.8781
2622	0.884
2613	0.8891
2604	0.8925
2595	0.8939
2586	0.8956
2577	0.8975
2568	0.9001
2559	0.9021
2550	0.903
2541	0.9039
2532	0.905
2523	0.906
2514	0.907
2505	0.908
2496	0.9089
2487	0.9097
2478	0.9106
2469	0.9114
2460	0.9121
2451	0.9118
2442	0.9117
2433	0.9115
2424	0.9115
2415	0.9116
2406	0.9115
2397	0.9109
2388	0.9105
2379	0.9101
2370	0.9099
2361	0.9101
2352	0.9109
2343	0.9125
2334	0.9178
2325	0.9075
2316	0.9053
2307	0.9055
2298	0.905
2289	0.904
2280	0.9039
2271	0.9039
2262	0.9039
2253	0.904
2244	0.9039
2235	0.9038
2226	0.9037
2217	0.9042
2208	0.9047
2199	0.9051
2190	0.9056
2181	0.9056
2172	0.9056
2163	0.9055
2154	0.9055
2145	0.9054
2136	0.9046
2127	0.9036
2118	0.9025
2109	0.9015
2100	0.8999
2091	0.8984
2082	0.8971
2073	0.8968
2064	0.8966
2055	0.8966
2046	0.8971
2037	0.8974
2028	0.8971
2019	0.8963
2010	0.8954
2001	0.8954
1992	0.8935
1983	0.8834
1974	0.8853
1965	0.8865
1956	0.8871
1947	0.8875
1938	0.8875
1929	0.8865
1920	0.8863
1911	0.8865
1902	0.8875
1893	0.8889
1884	0.8899
1875	0.891
1866	0.8921
1857	0.8932
1848	0.8939
1839	0.8938
1830	0.8938
1821	0.8939
1812	0.8941
1803	0.8945
1794	0.8952
1785	0.8958
1776	0.8956
1767	0.8945
1758	0.8925
1749	0.8914
1740	0.891
1731	0.8862
1722	0.8799
1713	0.8715
1704	0.8577
1695	0.8443
1686	0.8218
1677	0.7993
1668	0.7668
1659	0.7282
1650	0.6924
1641	0.6203
1632	0.5437
1623	0.4705
1614	0.4258
1605	0.3837
1596	0.3628
1587	0.3752
1578	0.4249
1569	0.4802
1560	0.5379
1551	0.6237
1542	0.713
1533	0.7558
1524	0.7808
1515	0.7944
1506	0.8
1497	0.8011
1488	0.7875
1479	0.6878
1470	0.3754
1461	0.49
1452	0.5926
1443	0.6868
1434	0.763
1425	0.7975
1416	0.8112
1407	0.8112
1398	0.7405
1389	0.544
1380	0.4512
1371	0.456
1362	0.3704
1353	0.6558
1344	0.7726
1335	0.8061
1326	0.821
1317	0.8093
1308	0.7918
1299	0.7748
1290	0.7899
1281	0.7955
1272	0.7865
1263	0.7193
1254	0.5865
1245	0.5487
1236	0.6023
1227	0.6285
1218	0.6395
1209	0.6741
1200	0.67
1191	0.691
1182	0.7336
1173	0.7964
1164	0.8599
1155	0.8625
1146	0.855
1137	0.8325
1128	0.8125
1119	0.8284
1110	0.8401
1101	0.8012
1092	0.7349
1083	0.6708
1074	0.5823
1065	0.5301
1056	0.578
1047	0.6731
1038	0.744
1029	0.7417
1020	0.7054
1011	0.6586
1002	0.6364
993	0.6896
984	0.7115
975	0.6881
966	0.6329
957	0.5568
948	0.4685
939	0.4016
930	0.3568
921	0.3179
912	0.2497
903	0.2231
894	0.2135
885	0.197
876	0.179
867	0.1701
858	0.1666
849	0.1672
840	0.1752
831	0.1968
822	0.2274
813	0.2831
804	0.354
795	0.4382
786	0.5157
777	0.6432
768	0.7028
759	0.7408
750	0.7355
741	0.5054
732	0.5594
723	0.6601
714	0.7356
705	0.7911
696	0.8228
687	0.8459
678	0.8635
669	0.8746
660	0.8795
651	0.8825
642	0.8839
633	0.883
624	0.8812
615	0.8791
606	0.8753
597	0.8711
588	0.8659
579	0.8596
570	0.8396
561	0.7794
552	0.6601
543	0.7111
534	0.8022
525	0.8178
516	0.8242
507	0.8392
498	0.8416
489	0.8336
480	0.8096
471	0.7734
462	0.736
453	0.6861
444	0.6701
435	0.6668
426	0.6618
417	0.6542
408	0.6481
399	0.6401
390	0.6323
381	0.6308
