Infrared Spectrum: TRIMETHYLBORANE
Formula: C3 H9 B
CAS: 593-90-8
State: VAPOR AT 30 mmHg PRESSURE;
Class: COBLENTZ
Instrument: Not specified, most likely a prism, grating, or hybrid spectrometer.
Sampling: TRANSMISSION
Path length: 10 CM
Resolution: 4
Origin: KALLERY CHEMICAL COMPANY
MICROMETERS	TRANSMITTANCE
2	0.504
2.03571	0.504
2.07143	0.507
2.10714	0.511
2.14285	0.514
2.17857	0.518
2.21428	0.522
2.24999	0.523
2.28571	0.523
2.32142	0.527
2.35713	0.527
2.39285	0.529
2.42856	0.53
2.46427	0.532
2.49998	0.537
2.5357	0.548
2.57141	0.555
2.60712	0.562
2.64284	0.567
2.67855	0.573
2.71426	0.578
2.74998	0.58
2.78569	0.583
2.8214	0.587
2.85712	0.589
2.89283	0.59
2.92854	0.59
2.96426	0.587
2.99997	0.585
3.03568	0.582
3.0714	0.58
3.10711	0.58
3.14282	0.574
3.17854	0.555
3.21425	0.518
3.24996	0.412
3.28568	0.231
3.32139	0.134
3.3571	0.142
3.39281	0.185
3.42853	0.222
3.46424	0.345
3.49995	0.449
3.53567	0.516
3.57138	0.55
3.60709	0.578
3.64281	0.587
3.67852	0.597
3.71423	0.608
3.74995	0.611
3.78566	0.611
3.82137	0.613
3.85709	0.617
3.8928	0.619
3.92851	0.622
3.96423	0.624
3.99994	0.622
4.03565	0.622
4.07137	0.62
4.10708	0.624
4.14279	0.633
4.17851	0.64
4.21422	0.643
4.24993	0.647
4.28564	0.649
4.32136	0.652
4.35707	0.652
4.39278	0.65
4.4285	0.65
4.46421	0.65
4.49992	0.649
4.53564	0.647
4.57135	0.643
4.60706	0.638
4.64278	0.641
4.67849	0.647
4.7142	0.649
4.74992	0.65
4.78563	0.657
4.82134	0.663
4.85706	0.661
4.89277	0.661
4.92848	0.659
4.9642	0.657
4.99991	0.654
5.03562	0.654
5.07134	0.656
5.10705	0.657
5.14276	0.663
5.17847	0.666
5.21419	0.673
5.2499	0.677
5.28561	0.679
5.32133	0.682
5.35704	0.684
5.39275	0.687
5.42847	0.686
5.46418	0.686
5.49989	0.687
5.53561	0.687
5.57132	0.691
5.60703	0.689
5.64275	0.693
5.67846	0.694
5.71417	0.694
5.74989	0.698
5.7856	0.703
5.82131	0.705
5.85703	0.707
5.89274	0.708
5.92845	0.71
5.96417	0.71
5.99988	0.712
6.03559	0.712
6.0713	0.708
6.10702	0.707
6.14273	0.703
6.17844	0.7
6.21416	0.698
6.24987	0.698
6.28558	0.698
6.3213	0.696
6.35701	0.694
6.39272	0.686
6.42844	0.673
6.46415	0.671
6.49986	0.65
6.53558	0.647
6.57129	0.634
6.607	0.62
6.64272	0.608
6.67843	0.597
6.71414	0.582
6.74986	0.571
6.78557	0.564
6.82128	0.557
6.857	0.553
6.89271	0.553
6.92842	0.553
6.96413	0.557
6.99985	0.559
7.03556	0.559
7.07127	0.553
7.10699	0.55
7.1427	0.541
7.17841	0.529
7.21413	0.511
7.24984	0.492
7.28555	0.456
7.32127	0.409
7.35698	0.373
7.39269	0.296
7.42841	0.22
7.46412	0.185
7.49983	0.121
7.53555	0.058
7.57126	0.024
7.60697	0.01
7.64269	0.005
7.6784	0.001
7.71411	0.001
7.74983	0.005
7.78554	0.031
7.82125	0.156
7.85696	0.276
7.89268	0.373
7.92839	0.469
7.9641	0.525
7.99982	0.564
8.03553	0.582
8.07124	0.596
8.10696	0.61
8.14267	0.619
8.17838	0.62
8.2141	0.62
8.24981	0.615
8.28552	0.597
8.32124	0.552
8.35695	0.382
8.39266	0.259
8.42838	0.243
8.46409	0.22
8.4998	0.156
8.53552	0.105
8.57123	0.047
8.60694	0.017
8.64266	0.017
8.67837	0.017
8.71408	0.021
8.74979	0.042
8.78551	0.088
8.82122	0.333
8.85693	0.425
8.89265	0.481
8.92836	0.544
8.96407	0.582
8.99979	0.611
9.0355	0.627
9.07121	0.645
9.10693	0.652
9.14264	0.661
9.17835	0.661
9.21407	0.661
9.24978	0.663
9.28549	0.661
9.32121	0.663
9.35692	0.663
9.39263	0.663
9.42835	0.664
9.46406	0.663
9.49977	0.663
9.53549	0.663
9.5712	0.663
9.60691	0.663
9.64262	0.661
9.67834	0.657
9.71405	0.652
9.74976	0.649
9.78548	0.643
9.82119	0.638
9.8569	0.627
9.89262	0.61
9.92833	0.587
9.96404	0.559
9.99976	0.537
10.0355	0.502
10.0712	0.47
10.1069	0.416
10.1426	0.4
10.1783	0.393
10.214	0.389
10.2497	0.388
10.2855	0.373
10.3212	0.352
10.3569	0.345
10.3926	0.359
10.4283	0.423
10.464	0.449
10.4997	0.481
10.5355	0.513
10.5712	0.532
10.6069	0.548
10.6426	0.576
10.6783	0.596
10.714	0.617
10.7497	0.631
10.7854	0.64
10.8212	0.652
10.8569	0.664
10.8926	0.671
10.9283	0.673
10.964	0.677
10.9997	0.68
11.0354	0.684
11.0712	0.686
11.1069	0.689
11.1426	0.694
11.1783	0.694
11.214	0.694
11.2497	0.694
11.2854	0.687
11.3211	0.682
11.3569	0.675
11.3926	0.668
11.4283	0.661
11.464	0.654
11.4997	0.65
11.5354	0.649
11.5711	0.647
11.6069	0.645
11.6426	0.645
11.6783	0.641
11.714	0.641
11.7497	0.641
11.7854	0.643
11.8211	0.645
11.8568	0.65
11.8926	0.656
11.9283	0.661
11.964	0.666
11.9997	0.675
12.0354	0.677
12.0711	0.68
12.1068	0.686
12.1425	0.687
12.1783	0.689
12.214	0.693
12.2497	0.696
12.2854	0.696
12.3211	0.698
12.3568	0.698
12.3925	0.696
12.4283	0.7
12.464	0.7
12.4997	0.701
12.5354	0.7
12.5711	0.703
12.6068	0.701
12.6425	0.701
12.6782	0.701
12.714	0.701
12.7497	0.701
12.7854	0.701
12.8211	0.701
12.8568	0.703
12.8925	0.705
12.9282	0.707
12.964	0.707
12.9997	0.708
13.0354	0.708
13.0711	0.71
13.1068	0.708
13.1425	0.708
13.1782	0.71
13.2139	0.71
13.2497	0.71
13.2854	0.708
13.3211	0.708
13.3568	0.707
13.3925	0.707
13.4282	0.707
13.4639	0.705
13.4997	0.703
13.5354	0.7
13.5711	0.7
13.6068	0.7
13.6425	0.698
13.6782	0.696
13.7139	0.696
13.7496	0.696
13.7854	0.694
13.8211	0.694
13.8568	0.696
13.8925	0.696
13.9282	0.696
13.9639	0.694
13.9996	0.693
14.0353	0.693
14.0711	0.689
14.1068	0.687
14.1425	0.686
14.1782	0.684
14.2139	0.682
14.2496	0.68
14.2853	0.679
14.3211	0.677
14.3568	0.677
14.3925	0.675
14.4282	0.673
14.4639	0.673
14.4996	0.67
14.5353	0.668
14.571	0.666
14.6068	0.664
14.6425	0.664
14.6782	0.664
14.7139	0.663
14.7496	0.661
14.7853	0.659
14.821	0.657
14.8568	0.656
14.8925	0.652
14.9282	0.649
14.9639	0.645
14.9996	0.643
15.0353	0.64
15.071	0.634
15.1067	0.633
15.1425	0.629
15.1782	0.629
15.2139	0.626
15.2496	0.626
15.2853	0.624
15.321	0.624
15.3567	0.622
15.3925	0.62
15.4282	0.62
15.4639	0.619
15.4996	0.617
15.5353	0.617
15.571	0.617
15.6067	0.617
