Infrared Spectrum: METHANE, DIBROMOFLUORO-
Formula: C H Br2 F
CAS: 1868-53-7
State: GAS (100 mmHg, N2 ADDED, TOTAL PRESSURE = ATMOSPHERIC RESSURE)
Class: COBLENTZ
Instrument: PERKIN-ELMER 225
Path length: 5 CM CsI CELL
Resolution: 2
Origin: DOW CHEMICAL COMPANY
1/CM	TRANSMITTANCE
351.288	0.736
360.031	0.72
368.774	0.742
377.518	0.748
386.261	0.751
395.004	0.74
403.747	0.734
412.49	0.744
421.233	0.742
429.977	0.736
438.72	0.748
447.463	0.732
456.206	0.759
464.949	0.787
473.693	0.797
482.436	0.793
491.179	0.797
499.922	0.791
508.665	0.787
517.408	0.779
526.152	0.761
534.895	0.71
543.638	0.696
552.381	0.718
561.124	0.7569
569.868	0.791
578.611	0.773
587.354	0.765
596.097	0.7141
604.84	0.5701
613.583	0.303
622.327	0.2118
631.07	0.2038
639.813	0.348
648.556	0.4308
657.299	0.5568
666.042	0.805
674.786	0.732
683.529	0.6021
692.272	0.4031
701.015	0.015
709.758	0.009
718.502	0.009
727.245	0.535
735.988	0.545
744.731	0.677
753.474	0.517
762.217	0.2405
770.961	0.0621
779.704	0.2459
788.447	0.629
797.19	0.783
805.933	0.797
814.677	0.789
823.42	0.803
832.163	0.854
840.906	0.852
849.649	0.85
858.392	0.85
867.136	0.84
875.879	0.832
884.622	0.844
893.365	0.844
902.108	0.834
910.852	0.82
919.595	0.801
928.338	0.807
937.081	0.836
945.824	0.838
954.567	0.846
963.311	0.844
972.054	0.834
980.797	0.826
989.54	0.807
998.283	0.777
1007.03	0.779
1015.77	0.807
1024.51	0.799
1033.26	0.7281
1042	0.5741
1050.74	0.305
1059.49	0.0191
1068.23	0.011
1076.97	0.009
1085.72	0.009
1094.46	0.1267
1103.2	0.6689
1111.94	0.812
1120.69	0.807
1129.43	0.795
1138.17	0.759
1146.92	0.6771
1155.66	0.4521
1164.4	0.009
1173.15	0.0249
1181.89	0.3616
1190.63	0.773
1199.38	0.7421
1208.12	0.6251
1216.86	0.383
1225.61	0.505
1234.35	0.5329
1243.09	0.6239
1251.84	0.698
1260.58	0.775
1269.32	0.753
1278.07	0.6
1286.81	0.3832
1295.55	0.248
1304.29	0.4919
1313.04	0.671
1321.78	0.765
1330.52	0.753
1339.27	0.781
1348.01	0.814
1356.75	0.797
1365.5	0.767
1374.24	0.781
1382.98	0.75
1391.73	0.787
1400.47	0.787
1409.21	0.771
1417.96	0.765
1426.7	0.767
1435.44	0.787
1444.19	0.797
1452.93	0.793
1461.67	0.795
1470.42	0.767
1479.16	0.812
1487.9	0.832
1496.64	0.854
1505.39	0.86
1514.13	0.858
1522.87	0.856
1531.62	0.856
1540.36	0.86
1549.1	0.864
1557.85	0.868
1566.59	0.866
1575.33	0.866
1584.08	0.872
1592.82	0.872
1601.56	0.87
1610.31	0.868
1619.05	0.858
1627.79	0.842
1636.54	0.856
1645.28	0.866
1654.02	0.874
1662.77	0.875
1671.51	0.874
1680.25	0.87
1688.99	0.87
1697.74	0.872
1706.48	0.872
1715.22	0.868
1723.97	0.868
1732.71	0.868
1741.45	0.866
1750.2	0.866
1758.94	0.872
1767.68	0.874
1776.43	0.875
1785.17	0.877
1793.91	0.875
1802.66	0.881
1811.4	0.881
1820.14	0.879
1828.89	0.883
1837.63	0.883
1846.37	0.883
1855.11	0.879
1863.86	0.881
1872.6	0.881
1881.34	0.879
1890.09	0.883
1898.83	0.883
1907.57	0.881
1916.32	0.881
1925.06	0.875
1933.8	0.881
1942.55	0.881
1951.29	0.881
1960.03	0.885
1968.78	0.887
1977.52	0.887
1986.26	0.883
1995.01	0.885
2003.75	0.892
2012.49	0.893
2021.24	0.897
2029.98	0.897
2038.72	0.899
2047.46	0.901
2056.21	0.901
2064.95	0.901
2073.69	0.899
2082.44	0.8939
2091.18	0.891
2099.92	0.8771
2108.67	0.844
2117.41	0.7569
2126.15	0.677
2134.9	0.6771
2143.64	0.7645
2152.38	0.892
2161.13	0.9212
2169.87	0.9241
2178.61	0.9229
2187.36	0.922
2196.1	0.925
2204.84	0.927
2213.59	0.925
2222.33	0.923
2231.07	0.9175
2239.81	0.9022
2248.56	0.905
2257.3	0.9204
2266.04	0.925
2274.79	0.9276
2283.53	0.931
2292.27	0.931
2301.02	0.9325
2309.76	0.933
2318.5	0.9344
2327.25	0.944
2335.99	0.948
2344.73	0.9505
2353.48	0.956
2362.22	0.9538
2370.96	0.9489
2379.71	0.9459
2388.45	0.9375
2397.19	0.938
2405.94	0.9351
2414.68	0.9397
2423.42	0.9408
2432.16	0.9382
2440.91	0.9393
2449.65	0.9355
2458.39	0.921
2467.14	0.911
2475.88	0.9201
2484.62	0.9475
2493.37	0.95
2502.11	0.952
2510.85	0.952
2519.6	0.954
2528.34	0.958
2537.08	0.956
2545.83	0.954
2554.57	0.946
2563.31	0.9369
2572.06	0.9279
2580.8	0.9331
2589.54	0.954
2598.29	0.9659
2607.03	0.97
2615.77	0.97
2624.51	0.97
2633.26	0.97
2642	0.968
2650.74	0.97
2659.49	0.9727
2668.23	0.974
2676.97	0.976
2685.72	0.974
2694.46	0.9735
2703.2	0.972
2711.95	0.9756
2720.69	0.972
2729.43	0.97
2738.18	0.97
2746.92	0.9722
2755.66	0.972
2764.41	0.972
2773.15	0.974
2781.89	0.972
2790.64	0.97
2799.38	0.968
2808.12	0.966
2816.86	0.966
2825.61	0.9592
2834.35	0.9542
2843.09	0.9406
2851.84	0.918
2860.58	0.9037
2869.32	0.8934
2878.07	0.8935
2886.81	0.892
2895.55	0.8797
2904.3	0.8538
2913.04	0.8266
2921.78	0.8064
2930.53	0.7993
2939.27	0.8214
2948.01	0.8724
2956.76	0.8718
2965.5	0.7986
2974.24	0.7251
2982.99	0.7121
2991.73	0.7267
3000.47	0.8119
3009.21	0.874
3017.96	0.9116
3026.7	0.9428
3035.44	0.9652
3044.19	0.972
3052.93	0.974
3061.67	0.976
3070.42	0.976
3079.16	0.976
3087.9	0.976
3096.65	0.9784
3105.39	0.98
3114.13	0.98
3122.88	0.98
3131.62	0.98
3140.36	0.976
3149.11	0.976
3157.85	0.974
3166.59	0.974
3175.34	0.977
3184.08	0.978
3192.82	0.9789
3201.56	0.9799
3210.31	0.9809
3219.05	0.982
3227.79	0.9772
3236.54	0.974
3245.28	0.978
3254.02	0.98
3262.77	0.982
3271.51	0.982
3280.25	0.984
3289	0.984
3297.74	0.982
3306.48	0.984
3315.23	0.9837
3323.97	0.98
3332.71	0.982
3341.46	0.982
3350.2	0.98
3358.94	0.978
3367.69	0.976
3376.43	0.971
3385.17	0.968
3393.91	0.966
3402.66	0.964
3411.4	0.966
3420.14	0.968
3428.89	0.966
3437.63	0.968
3446.37	0.9747
3455.12	0.976
3463.86	0.974
3472.6	0.972
3481.35	0.978
3490.09	0.976
3498.83	0.978
3507.58	0.978
3516.32	0.9783
3525.06	0.98
3533.81	0.98
3542.55	0.98
3551.29	0.9801
3560.04	0.9831
3568.78	0.986
3577.52	0.988
3586.26	0.992
3595.01	0.994
3603.75	0.994
3612.49	0.996
3621.24	1
3629.98	0.9931
3638.72	0.978
3647.47	0.982
3656.21	0.9836
3664.95	0.994
3673.7	0.9955
3682.44	0.996
3691.18	0.996
3699.93	0.996
3708.67	0.996
3717.41	0.996
3726.16	0.996
3734.9	0.998
3743.64	0.9972
3752.39	1.0011
3761.13	1.001
3769.87	1
3778.61	0.999
3787.36	1
3796.1	1
