Infrared Spectrum: DIBROMO FLUORO METHANE
Formula: C H Br2 F
CAS: 1868-53-7
State: SOLUTION (10% CCl4 FOR 5000-1330, 10% CS2 FOR 1330-625 CM^-^1)
Class: COBLENTZ
Instrument: Not specified, most likely a prism, grating, or hybrid spectrometer.
Sampling: TRANSMISSION
Path length: 0.0122 CM, 0.0120 CM
Resolution: 4
Origin: DOW CHEMICAL COMPANY
MICROMETERS	TRANSMITTANCE
2.027	0.851
2.06806	0.846
2.10911	0.841
2.15017	0.837
2.19123	0.831
2.23228	0.824
2.27334	0.819
2.3144	0.815
2.35545	0.815
2.39651	0.822
2.43757	0.832
2.47862	0.846
2.51968	0.866
2.56074	0.866
2.60179	0.851
2.64285	0.856
2.68391	0.841
2.72496	0.841
2.76602	0.841
2.80708	0.844
2.84813	0.854
2.88919	0.861
2.93025	0.863
2.9713	0.858
3.01236	0.858
3.05342	0.86
3.09447	0.858
3.13553	0.861
3.17659	0.866
3.21764	0.87
3.2587	0.865
3.29976	0.851
3.34081	0.798
3.38187	0.831
3.42293	0.831
3.46399	0.858
3.50504	0.865
3.5461	0.87
3.58716	0.865
3.62821	0.861
3.66927	0.863
3.71033	0.865
3.75138	0.861
3.79244	0.858
3.8335	0.856
3.87455	0.854
3.91561	0.854
3.95667	0.86
3.99772	0.86
4.03878	0.86
4.07984	0.86
4.12089	0.861
4.16195	0.875
4.20301	0.865
4.24406	0.849
4.28512	0.843
4.32618	0.866
4.36723	0.872
4.40829	0.863
4.44935	0.863
4.4904	0.865
4.53146	0.863
4.57252	0.866
4.61357	0.865
4.65463	0.861
4.69569	0.849
4.73674	0.825
4.7778	0.834
4.81886	0.86
4.85991	0.868
4.90097	0.87
4.94203	0.875
4.98308	0.877
5.02414	0.873
5.0652	0.873
5.10625	0.877
5.14731	0.873
5.18837	0.872
5.22942	0.87
5.27048	0.866
5.31154	0.872
5.35259	0.868
5.39365	0.873
5.43471	0.873
5.47576	0.873
5.51682	0.883
5.55788	0.878
5.59893	0.883
5.63999	0.882
5.68105	0.892
5.7221	0.892
5.76316	0.892
5.80422	0.912
5.84527	0.907
5.88633	0.894
5.92739	0.894
5.96844	0.897
6.0095	0.914
6.05056	0.901
6.09162	0.883
6.13267	0.878
6.17373	0.909
6.21479	0.935
6.25584	0.938
6.2969	0.943
6.33796	0.941
6.37901	0.938
6.42007	0.935
6.46113	0.931
6.50218	0.928
6.54324	0.931
6.5843	0.924
6.62535	0.919
6.66641	0.923
6.70747	0.912
6.74852	0.897
6.78958	0.872
6.83064	0.863
6.87169	0.872
6.91275	0.875
6.95381	0.883
6.99486	0.901
7.03592	0.904
7.07698	0.907
7.11803	0.894
7.15909	0.882
7.20015	0.866
7.2412	0.861
7.28226	0.853
7.32332	0.894
7.36437	0.904
7.40543	0.909
7.44649	0.899
7.48754	0.906
7.5286	0.907
7.56966	0.895
7.61071	0.865
7.65177	0.778
7.69283	0.696
7.73388	0.619
7.77494	0.805
7.816	0.887
7.85705	0.904
7.89811	0.912
7.93917	0.919
7.98022	0.921
8.02128	0.902
8.06234	0.868
8.10339	0.8
8.14445	0.725
8.18551	0.788
8.22656	0.873
8.26762	0.894
8.30868	0.902
8.34973	0.902
8.39079	0.885
8.43185	0.848
8.4729	0.761
8.51396	0.554
8.55502	0.204
8.59607	0.156
8.63713	0.447
8.67819	0.687
8.71925	0.808
8.7603	0.854
8.80136	0.887
8.84242	0.902
8.88347	0.909
8.92453	0.912
8.96559	0.916
9.00664	0.923
9.0477	0.916
9.08876	0.899
9.12981	0.878
9.17087	0.853
9.21193	0.807
9.25298	0.738
9.29404	0.612
9.3351	0.448
9.37615	0.208
9.41721	0.071
9.45827	0.044
9.49932	0.078
9.54038	0.271
9.58144	0.421
9.62249	0.558
9.66355	0.65
9.70461	0.732
9.74566	0.802
9.78672	0.844
9.82778	0.872
9.86883	0.885
9.90989	0.892
9.95095	0.901
9.992	0.902
10.0331	0.895
10.0741	0.899
10.1152	0.912
10.1562	0.918
10.1973	0.918
10.2383	0.918
10.2794	0.916
10.3205	0.924
10.3615	0.924
10.4026	0.926
10.4436	0.924
10.4847	0.921
10.5257	0.921
10.5668	0.914
10.6079	0.906
10.6489	0.901
10.69	0.887
10.731	0.875
10.7721	0.872
10.8131	0.887
10.8542	0.897
10.8953	0.902
10.9363	0.904
10.9774	0.912
11.0184	0.921
11.0595	0.924
11.1005	0.924
11.1416	0.924
11.1826	0.918
11.2237	0.916
11.2648	0.907
11.3058	0.885
11.3469	0.865
11.3879	0.865
11.429	0.89
11.47	0.899
11.5111	0.904
11.5522	0.912
11.5932	0.919
11.6343	0.923
11.6753	0.923
11.7164	0.947
11.7574	0.943
11.7985	0.931
11.8396	0.933
11.8806	0.933
11.9217	0.928
11.9627	0.928
12.0038	0.93
12.0448	0.928
12.0859	0.928
12.127	0.924
12.168	0.921
12.2091	0.916
12.2501	0.907
12.2912	0.897
12.3322	0.894
12.3733	0.897
12.4143	0.907
12.4554	0.912
12.4965	0.916
12.5375	0.911
12.5786	0.899
12.6196	0.895
12.6607	0.895
12.7017	0.899
12.7428	0.906
12.7839	0.912
12.8249	0.914
12.866	0.919
12.907	0.919
12.9481	0.916
12.9891	0.914
13.0302	0.912
13.0713	0.906
13.1123	0.899
13.1534	0.901
13.1944	0.904
13.2355	0.906
13.2765	0.906
13.3176	0.902
13.3587	0.895
13.3997	0.885
13.4408	0.872
13.4818	0.86
13.5229	0.856
13.5639	0.854
13.605	0.851
13.6461	0.843
13.6871	0.836
13.7282	0.832
13.7692	0.82
13.8103	0.807
13.8513	0.784
13.8924	0.761
13.9334	0.728
13.9745	0.682
14.0156	0.607
14.0566	0.513
14.0977	0.394
14.1387	0.218
14.1798	0.102
14.2208	0.027
14.2619	0.008
14.303	0.003
14.344	0.022
14.3851	0.068
14.4261	0.156
14.4672	0.267
14.5082	0.366
14.5493	0.464
14.5904	0.544
14.6314	0.581
14.6725	0.593
14.7135	0.598
14.7546	0.604
14.7956	0.607
14.8367	0.612
14.8778	0.621
14.9188	0.624
14.9599	0.643
15.0009	0.674
15.042	0.704
15.083	0.723
15.1241	0.732
15.1651	0.737
15.2062	0.738
15.2473	0.735
15.2883	0.725
15.3294	0.709
15.3704	0.686
15.4115	0.672
15.4525	0.658
15.4936	0.66
15.5347	0.662
15.5757	0.663
15.6168	0.672
15.6578	0.682
15.6989	0.686
15.7399	0.691
15.781	0.689
15.8221	0.701
