Infrared Spectrum: METHANE, DIBROMOFLUORO-
Formula: C H Br2 F
CAS: 1868-53-7
State: GAS (100 mmHg DILUTED TO ATMOSPHERIC PRESSURE WITH N2)
Class: COBLENTZ
Instrument: PERKIN-ELMER 225
Sampling: TRANSMISSION
Path length: 5 CM CsI CELL
Resolution: 4
Origin: DOW CHEMICAL COMPANY
1/CM	TRANSMITTANCE
350.341	0.736
359.01	0.723
367.678	0.736
376.347	0.745
385.016	0.751
393.685	0.744
402.353	0.734
411.022	0.741
419.691	0.742
428.36	0.738
437.028	0.746
445.697	0.741
454.366	0.751
463.035	0.78
471.703	0.793
480.372	0.797
489.041	0.795
497.709	0.794
506.378	0.79
515.047	0.78
523.716	0.771
532.384	0.729
541.053	0.693
549.722	0.682
558.391	0.715
567.059	0.791
575.728	0.785
584.397	0.77
593.066	0.742
601.734	0.655
610.403	0.435
619.072	0.186
627.74	0.126
636.409	0.312
645.078	0.376
653.747	0.5
662.415	0.727
671.084	0.778
679.753	0.722
688.422	0.561
697.09	0.123
705.759	0.01
714.428	0.009
723.097	0.304
731.765	0.549
740.434	0.593
749.103	0.653
757.771	0.454
766.44	0.108
775.109	0.076
783.778	0.436
792.446	0.725
801.115	0.794
809.784	0.795
818.453	0.789
827.121	0.82
835.79	0.851
844.459	0.853
853.128	0.853
861.796	0.848
870.465	0.836
879.134	0.836
887.802	0.844
896.471	0.842
905.14	0.829
913.809	0.806
922.477	0.798
931.146	0.823
939.815	0.838
948.484	0.84
957.152	0.847
965.821	0.842
974.49	0.824
983.159	0.82
991.827	0.802
1000.5	0.774
1009.16	0.78
1017.83	0.81
1026.5	0.787
1035.17	0.684
1043.84	0.434
1052.51	0.115
1061.18	0.006
1069.85	0.008
1078.51	0.006
1087.18	0.017
1095.85	0.3551
1104.52	0.782
1113.19	0.812
1121.86	0.805
1130.53	0.79
1139.2	0.756
1147.86	0.643
1156.53	0.2909
1165.2	0.006
1173.87	0.01
1182.54	0.529
1191.21	0.774
1199.88	0.751
1208.55	0.627
1217.21	0.394
1225.88	0.502
1234.55	0.538
1243.22	0.604
1251.89	0.676
1260.56	0.765
1269.23	0.761
1277.9	0.621
1286.56	0.387
1295.23	0.2461
1303.9	0.469
1312.57	0.646
1321.24	0.764
1329.91	0.751
1338.58	0.765
1347.25	0.814
1355.91	0.802
1364.58	0.771
1373.25	0.779
1381.92	0.742
1390.59	0.755
1399.26	0.787
1407.93	0.774
1416.6	0.767
1425.26	0.76
1433.93	0.787
1442.6	0.794
1451.27	0.795
1459.94	0.789
1468.61	0.778
1477.28	0.81
1485.95	0.824
1494.61	0.851
1503.28	0.858
1511.95	0.858
1520.62	0.855
1529.29	0.858
1537.96	0.861
1546.63	0.862
1555.29	0.866
1563.96	0.868
1572.63	0.863
1581.3	0.868
1589.97	0.87
1598.64	0.868
1607.31	0.868
1615.98	0.861
1624.64	0.844
1633.31	0.853
1641.98	0.862
1650.65	0.872
1659.32	0.873
1667.99	0.876
1676.66	0.872
1685.33	0.869
1693.99	0.87
1702.66	0.87
1711.33	0.869
1720	0.868
1728.67	0.868
1737.34	0.866
1746.01	0.866
1754.68	0.869
1763.34	0.874
1772.01	0.876
1780.68	0.876
1789.35	0.878
1798.02	0.876
1806.69	0.88
1815.36	0.881
1824.03	0.878
1832.69	0.884
1841.36	0.882
1850.03	0.882
1858.7	0.881
1867.37	0.88
1876.04	0.881
1884.71	0.88
1893.38	0.884
1902.04	0.884
1910.71	0.878
1919.38	0.882
1928.05	0.876
1936.72	0.88
1945.39	0.882
1954.06	0.881
1962.73	0.884
1971.39	0.887
1980.06	0.887
1988.73	0.884
1997.4	0.887
2006.07	0.8915
2014.74	0.893
2023.41	0.896
2032.08	0.897
2040.74	0.899
2049.41	0.9
2058.08	0.902
2066.75	0.902
2075.42	0.9
2084.09	0.8955
2092.76	0.891
2101.43	0.8826
2110.09	0.8507
2118.76	0.7823
2127.43	0.6802
2136.1	0.707
2144.77	0.7128
2153.44	0.8836
2162.11	0.921
2170.78	0.9239
2179.44	0.923
2188.11	0.9199
2196.78	0.925
2205.45	0.922
2214.12	0.925
2222.79	0.9225
2231.46	0.919
2240.12	0.906
2248.79	0.9049
2257.46	0.9138
2266.13	0.9225
2274.8	0.9265
2283.47	0.9295
2292.14	0.933
2300.81	0.931
2309.47	0.93
2318.14	0.931
2326.81	0.9445
2335.48	0.9469
2344.15	0.949
2352.82	0.957
2361.49	0.9541
2370.16	0.9515
2378.82	0.946
2387.49	0.9415
2396.16	0.938
2404.83	0.936
2413.5	0.934
2422.17	0.9374
2430.84	0.938
2439.51	0.94
2448.17	0.94
2456.84	0.9252
2465.51	0.9051
2474.18	0.9129
2482.85	0.9463
2491.52	0.9499
2500.19	0.951
2508.86	0.952
2517.52	0.953
2526.19	0.956
2534.86	0.959
2543.53	0.9556
2552.2	0.951
2560.87	0.9446
2569.54	0.9327
2578.21	0.925
2586.87	0.9397
2595.54	0.9583
2604.21	0.97
2612.88	0.97
2621.55	0.97
2630.22	0.97
2638.89	0.97
2647.56	0.968
2656.22	0.971
2664.89	0.972
2673.56	0.974
2682.23	0.974
2690.9	0.972
2699.57	0.972
2708.24	0.972
2716.91	0.9732
2725.57	0.971
2734.24	0.9692
2742.91	0.9704
2751.58	0.974
2760.25	0.9732
2768.92	0.9728
2777.59	0.974
2786.26	0.972
2794.92	0.97
2803.59	0.965
2812.26	0.965
2820.93	0.967
2829.6	0.9606
2838.27	0.9556
2846.94	0.9398
2855.6	0.9226
2864.27	0.9024
2872.94	0.891
2881.61	0.895
2890.28	0.8904
2898.95	0.8816
2907.62	0.8604
2916.29	0.8317
2924.95	0.8105
2933.62	0.7976
2942.29	0.8187
2950.96	0.8573
2959.63	0.8792
2968.3	0.8371
2976.97	0.7655
2985.64	0.709
2994.3	0.7231
3002.97	0.7296
3011.64	0.8614
3020.31	0.8906
3028.98	0.9231
3037.65	0.9554
3046.32	0.971
3054.99	0.976
3063.65	0.974
3072.32	0.974
3080.99	0.974
3089.66	0.974
3098.33	0.975
3107	0.978
3115.67	0.979
3124.34	0.979
3133	0.979
3141.67	0.978
3150.34	0.9746
3159.01	0.974
3167.68	0.974
3176.35	0.975
3185.02	0.976
3193.69	0.9767
3202.35	0.98
3211.02	0.982
3219.69	0.982
3228.36	0.98
3237.03	0.978
3245.7	0.978
3254.37	0.979
3263.04	0.982
3271.7	0.9823
3280.37	0.983
3289.04	0.983
3297.71	0.983
3306.38	0.983
3315.05	0.982
3323.72	0.98
3332.39	0.98
3341.05	0.98
3349.72	0.98
3358.39	0.9787
3367.06	0.976
3375.73	0.9747
3384.4	0.9707
3393.07	0.9677
3401.74	0.967
3410.4	0.967
3419.07	0.967
3427.74	0.967
3436.41	0.9673
3445.08	0.9713
3453.75	0.974
3462.42	0.9753
3471.09	0.976
3479.75	0.976
3488.42	0.976
3497.09	0.978
3505.76	0.978
3514.43	0.979
3523.1	0.98
3531.77	0.98
3540.43	0.98
3549.1	0.9806
3557.77	0.9823
3566.44	0.9853
3575.11	0.9893
3583.78	0.991
3592.45	0.994
3601.12	0.993
3609.78	0.994
3618.45	0.997
3627.12	0.9964
3635.79	0.991
3644.46	0.983
3653.13	0.983
3661.8	0.9893
3670.47	0.9916
3679.13	0.995
3687.8	0.995
3696.47	0.997
3705.14	0.997
3713.81	0.997
3722.48	0.997
3731.15	0.997
3739.82	0.997
3748.48	0.997
3757.15	0.9986
3765.82	1
3774.49	1
3783.16	1
3791.83	0.998
