Infrared Spectrum: 2-Methyl-2-propanethiol
Formula: C 4 H 10 S
CAS: 75-66-1
State: gas
Instrument: HP-GC/MS/IRD
Origin: NIST Mass Spectrometry Data Center
1/CM	ABSORBANCE
550	0.0005848
562	0.0010744
574	0.0018088
586	0.0024548
598	0.0022304
610	0.0011492
622	0.0003808
634	0.0001836
646	0.0001496
658	8.16e-05
670	6.8e-06
682	0.0001088
694	0.000136
706	0.0001292
718	8.84e-05
730	8.84e-05
742	7.48e-05
754	0.0001292
766	0.0001156
778	0.00017
790	0.0004148
802	0.0008364
814	0.0011084
826	0.0010744
838	0.0009248
850	0.0007956
862	0.0010404
874	0.0010608
886	0.0008364
898	0.0004896
910	0.0004624
922	0.000476
934	0.0004828
946	0.000544
958	0.0003944
970	0.00034
982	0.0002992
994	0.0003536
1006	0.0005848
1018	0.0006664
1030	0.0008636
1042	0.001054
1054	0.000952
1066	0.000884
1078	0.0007208
1090	0.0006596
1102	0.0007412
1114	0.0012988
1126	0.0027064
1138	0.0063036
1150	0.0116484
1162	0.0161432
1174	0.0164968
1186	0.0133348
1198	0.0103632
1210	0.0073372
1222	0.0035564
1234	0.0012104
1246	0.0004624
1258	0.0002856
1270	0.000204
1282	0.0001836
1294	0.000238
1306	0.0002652
1318	0.000408
1330	0.0009316
1342	0.0030804
1354	0.00867
1366	0.013702
1378	0.011424
1390	0.008602
1402	0.0024888
1414	0.0018632
1426	0.0024208
1438	0.0053992
1450	0.009078
1462	0.013226
1474	0.0102272
1486	0.0067796
1498	0.0033388
1510	0.0011424
1522	0.0006528
1534	0.0004488
1546	0.000272
1558	0.0002448
1570	0.0002448
1582	0.0001564
1594	0.0001904
1606	0.000204
1618	0.0001836
1630	0.0001836
1642	0.00017
1654	0.0002312
1666	0.0001972
1678	0.000204
1690	0.0002176
1702	0.000306
1714	0.0002992
1726	0.0003468
1738	0.0004148
1750	0.0004216
1762	0.0003876
1774	0.0003672
1786	0.0003536
1798	0.0003536
1810	0.0002788
1822	0.0002312
1834	0.0001224
1846	0.0001088
1858	0.0001156
1870	0.000102
1882	8.84e-05
1894	5.44e-05
1906	8.84e-05
1918	0.000136
1930	8.84e-05
1942	0.0001224
1954	0.0001156
1966	0.000136
1978	0.0001428
1990	0.000136
2002	6.12e-05
2014	6.8e-05
2026	6.8e-05
2038	0.0001224
2050	8.84e-05
2062	3.4e-05
2074	6.8e-05
2086	6.12e-05
2098	4.76e-05
2110	1.36e-05
2122	3.4e-05
2134	7.48e-05
2146	4.76e-05
2158	0.0001224
2170	0.0001768
2182	0.0002312
2194	0.0002788
2206	0.00017
2218	6.12e-05
2230	4.08e-05
2242	1.36e-05
2254	2.04e-05
2266	5.44e-05
2278	0.0001156
2290	0.000136
2302	0.000204
2314	0.00017
2326	0.0001292
2338	6.12e-05
2350	0.000102
2362	9.52e-05
2374	0.0001768
2386	0.0001836
2398	0.0002788
2410	0.0002448
2422	0.00017
2434	0.000136
2446	0.0001428
2458	8.16e-05
2470	8.16e-05
2482	0.0001088
2494	5.44e-05
2506	0.0001292
2518	0.0001428
2530	0.0002244
2542	0.0002516
2554	0.0006052
2566	0.0013396
2578	0.0020604
2590	0.0025568
2602	0.0019176
2614	0.0010336
2626	0.0005576
2638	0.0004556
2650	0.0005236
2662	0.000578
2674	0.0006664
2686	0.0007344
2698	0.0006596
2710	0.0009112
2722	0.0010812
2734	0.0012648
2746	0.001224
2758	0.0010676
2770	0.0011424
2782	0.0013192
2794	0.0016252
2806	0.0019448
2818	0.0023528
2830	0.0030328
2842	0.0046104
2854	0.009452
2866	0.0153612
2878	0.0204612
2890	0.02329
2902	0.0261596
2914	0.0288524
2926	0.0311372
2938	0.0374
2950	0.0486404
2962	0.0646068
2974	0.0634848
2986	0.044846
2998	0.020366
3010	0.0055692
3022	0.00187
3034	0.0011084
3046	0.0008364
3058	0.0006936
3070	0.0007072
3082	0.0006732
3094	0.000646
3106	0.0006392
3118	0.0006664
3130	0.0006528
3142	0.0006868
3154	0.0008228
3166	0.0008364
3178	0.0010268
3190	0.0010608
3202	0.0012172
3214	0.00119
3226	0.0012104
3238	0.00119
3250	0.0012376
3262	0.0011016
3274	0.0006936
3286	0.0004692
3298	0.0003332
3310	0.000306
3322	0.0004012
3334	0.0004488
3346	0.0005372
3358	0.0005508
3370	0.000612
3382	0.0005848
3394	0.0003672
3406	0.0002992
3418	0.0002516
3430	0.0001428
3442	0.0002924
3454	0.0002176
3466	0.0002584
3478	0.0001632
3490	0.0002108
3502	0.0001972
3514	0.0002448
3526	0.0001836
3538	0.00017
3550	0.0002992
3562	0.0001428
3574	0.0001564
3586	0.0001768
3598	0.0002108
3610	0.0001972
3622	0.000306
3634	0.000204
3646	0.000136
3658	0.0001768
3670	0.00017
3682	0
3694	0.0001496
3706	1.36e-05
3718	0.0001292
3730	0.0002312
3742	0.0001904
3754	0.0002312
3766	0.0002244
3778	0.0003128
3790	0.0003128
3802	0.0003332
3814	0.0003944
3826	0.0003196
3838	0.0003128
