Infrared Spectrum: 2-Methyl-1,3-dioxolane
Formula: C4 H8 O2
CAS: 497-26-7
State: SOLUTION (CCl4 FOR 2.0-7.5, CS2 FOR 7.5-16.0 MICRON) VS SOLVENT
Class: COBLENTZ III
Instrument: BAIRD (PRISM)
Instrument parameters: NaCl PRISM
Sampling: TRANSMISSION
Path length: 0.012 CM, AND 0.012 CM
Resolution: 2
Origin: DOW CHEMICAL COMPANY
1/CM	TRANSMITTANCE
631	0.9416
640	0.9545
649	0.944
658	0.9338
667	0.9368
676	0.9357
685	0.9089
694	0.8132
703	0.8885
712	0.9483
721	0.9618
730	0.9621
739	0.9587
748	0.9581
757	0.9562
766	0.9513
775	0.9407
784	0.9307
793	0.9103
802	0.8884
811	0.8578
820	0.8094
829	0.7115
838	0.5399
847	0.363
856	0.0839
865	0.0259
874	0.2303
883	0.5118
892	0.6478
901	0.7248
910	0.7686
919	0.7991
928	0.7883
937	0.6808
946	0.4144
955	0.731
964	0.8182
973	0.8227
982	0.7998
991	0.7564
1000	0.6497
1009	0.4396
1018	0.1114
1027	0.0367
1036	0.091
1045	0.268
1054	0.3748
1063	0.354
1072	0.2262
1081	0.0587
1090	0.0515
1099	0.1026
1108	0.0822
1117	0.0308
1126	0.0397
1135	0.0377
1144	0.0226
1153	0.0233
1162	0.111
1171	0.3232
1180	0.5024
1189	0.6084
1198	0.6521
1207	0.6327
1216	0.5179
1225	0.5056
1234	0.5783
1243	0.6541
1252	0.7208
1261	0.7644
1270	0.7951
1279	0.8197
1288	0.8374
1297	0.8394
1306	0.8343
1315	0.8281
1324	0.8439
1333	0.8551
1342	0.8261
1351	0.7528
1360	0.4818
1369	0.5876
1378	0.6782
1387	0.6514
1396	0.4909
1405	0.1525
1414	0.0607
1423	0.2301
1432	0.4665
1441	0.5778
1450	0.5662
1459	0.4727
1468	0.6078
1477	0.713
1486	0.629
1495	0.6989
1504	0.837
1513	0.8798
1522	0.8992
1531	0.9136
1540	0.9366
1549	0.9596
1558	0.9821
1567	0.9659
1576	0.9639
1585	0.9634
1594	0.9633
1603	0.9507
1612	0.9355
1621	0.9194
1630	0.9118
1639	0.9099
1648	0.9023
1657	0.9018
1666	0.9054
1675	0.9001
1684	0.8957
1693	0.8905
1702	0.8871
1711	0.8871
1720	0.8834
1729	0.8755
1738	0.8581
1747	0.8542
1756	0.8625
1765	0.8888
1774	0.9073
1783	0.909
1792	0.9103
1801	0.9117
1810	0.9133
1819	0.9152
1828	0.9132
1837	0.9097
1846	0.9078
1855	0.9078
1864	0.9089
1873	0.9055
1882	0.8968
1891	0.8917
1900	0.8841
1909	0.8678
1918	0.8687
1927	0.8743
1936	0.8846
1945	0.8854
1954	0.8827
1963	0.8827
1972	0.8847
1981	0.8806
1990	0.8742
1999	0.871
2008	0.8709
2017	0.8778
2026	0.887
2035	0.887
2044	0.8815
2053	0.8771
2062	0.8765
2071	0.8782
2080	0.885
2089	0.8925
2098	0.8985
2107	0.899
2116	0.897
2125	0.8948
2134	0.8932
2143	0.8925
2152	0.8925
2161	0.8925
2170	0.8925
2179	0.8925
2188	0.8924
2197	0.8921
2206	0.892
2215	0.8918
2224	0.8918
2233	0.8918
2242	0.8928
2251	0.8943
2260	0.8965
2269	0.8985
2278	0.8999
2287	0.9005
2296	0.8987
2305	0.8958
2314	0.8932
2323	0.8912
2332	0.8916
2341	0.8927
2350	0.8944
2359	0.8962
2368	0.8982
2377	0.9001
2386	0.902
2395	0.9039
2404	0.906
2413	0.9081
2422	0.9083
2431	0.9051
2440	0.9021
2449	0.9025
2458	0.903
2467	0.9037
2476	0.9045
2485	0.9042
2494	0.9028
2503	0.8995
2512	0.8934
2521	0.8871
2530	0.8852
2539	0.8853
2548	0.8854
2557	0.8853
2566	0.8851
2575	0.8846
2584	0.8833
2593	0.8821
2602	0.8814
2611	0.8714
2620	0.8509
2629	0.8305
2638	0.8122
2647	0.8107
2656	0.8112
2665	0.8104
2674	0.7971
2683	0.793
2692	0.7928
2701	0.7924
2710	0.7882
2719	0.7758
2728	0.7584
2737	0.7575
2746	0.7561
2755	0.7071
2764	0.6376
2773	0.6296
2782	0.6339
2791	0.6349
2800	0.6178
2809	0.591
2818	0.5822
2827	0.5922
2836	0.6071
2845	0.6103
2854	0.6088
2863	0.5836
2872	0.5386
2881	0.4939
2890	0.4494
2899	0.3802
2908	0.2288
2917	0.0829
2926	0.1001
2935	0.1466
2944	0.1928
2953	0.2387
2962	0.2609
2971	0.2588
2980	0.2495
2989	0.2353
2998	0.2034
3007	0.161
3016	0.1536
3025	0.2853
3034	0.386
3043	0.486
3052	0.5857
3061	0.6935
3070	0.7721
3079	0.7828
3088	0.8067
3097	0.8386
3106	0.8487
3115	0.8571
3124	0.8614
3133	0.8644
3142	0.8692
3151	0.8723
3160	0.8727
3169	0.8727
3178	0.8727
3187	0.8725
3196	0.8713
3205	0.87
3214	0.8686
3223	0.8675
3232	0.8668
3241	0.8665
3250	0.8666
3259	0.8667
3268	0.8671
3277	0.8678
3286	0.8687
3295	0.8697
3304	0.8706
3313	0.8718
3322	0.8731
3331	0.8735
3340	0.8737
3349	0.8738
3358	0.8738
3367	0.8738
3376	0.8738
3385	0.874
3394	0.8745
3403	0.8751
3412	0.8759
3421	0.8775
3430	0.8793
3439	0.88
3448	0.8803
3457	0.8797
3466	0.8791
3475	0.8778
3484	0.8758
3493	0.8737
3502	0.8712
3511	0.8686
3520	0.8686
3529	0.8685
3538	0.8685
3547	0.8688
3556	0.8692
3565	0.8697
3574	0.8705
3583	0.8721
3592	0.8739
3601	0.8757
3610	0.8781
3619	0.8803
3628	0.8817
3637	0.8828
3646	0.8835
3655	0.8839
3664	0.8843
3673	0.8846
3682	0.8846
3691	0.8847
3700	0.8847
3709	0.8848
3718	0.8848
3727	0.8848
3736	0.8848
3745	0.8848
3754	0.8848
3763	0.8849
3772	0.886
3781	0.8881
3790	0.8903
3799	0.8924
3808	0.8945
3817	0.8961
3826	0.8971
3835	0.8973
3844	0.8971
3853	0.8968
3862	0.8961
3871	0.8949
3880	0.8936
3889	0.892
3898	0.8903
3907	0.8886
3916	0.8875
3925	0.8867
3934	0.886
3943	0.8854
3952	0.8852
3961	0.885
3970	0.8847
3979	0.8844
3988	0.8837
3997	0.8831
