Infrared Spectrum: METHANE, DIIODO-
Formula: C H2 I2
CAS: 75-11-6
State: LIQUID (NEAT)
Class: COBLENTZ III
Instrument: DOW KBr FOREPRISM-GRATING
Instrument parameters: BLAZED AT 3.5, 12.0, 20.0 MICRON AND CHANGED AT 5.0, 7.5, 14.9 MICRON
Sampling: TRANSMISSION
Path length: CAPILLARY
Resolution: 2
Origin: DOW CHEMICAL COMPANY
1/CM	TRANSMITTANCE
3798	0.7956
3789	0.8015
3780	0.8028
3771	0.8019
3762	0.7798
3753	0.7875
3744	0.7965
3735	0.8036
3726	0.8071
3717	0.8072
3708	0.8071
3699	0.8069
3690	0.8068
3681	0.8068
3672	0.8071
3663	0.8074
3654	0.8078
3645	0.8081
3636	0.8085
3627	0.8087
3618	0.809
3609	0.8093
3600	0.8092
3591	0.8089
3582	0.8086
3573	0.8082
3564	0.8078
3555	0.8072
3546	0.8068
3537	0.8062
3528	0.8056
3519	0.8049
3510	0.8043
3501	0.8037
3492	0.8039
3483	0.804
3474	0.8041
3465	0.8043
3456	0.8044
3447	0.8046
3438	0.8047
3429	0.8049
3420	0.8051
3411	0.8051
3402	0.806
3393	0.8075
3384	0.809
3375	0.8106
3366	0.8122
3357	0.8139
3348	0.8155
3339	0.8174
3330	0.8195
3321	0.8213
3312	0.8224
3303	0.823
3294	0.8235
3285	0.8239
3276	0.8243
3267	0.8247
3258	0.8251
3249	0.8254
3240	0.8258
3231	0.8265
3222	0.8271
3213	0.8278
3204	0.8284
3195	0.8282
3186	0.828
3177	0.8277
3168	0.8275
3159	0.827
3150	0.8266
3141	0.8262
3132	0.8256
3123	0.8247
3114	0.8202
3105	0.8153
3096	0.8101
3087	0.8022
3078	0.7915
3069	0.769
3060	0.566
3051	0.3862
3042	0.646
3033	0.7785
3024	0.7955
3015	0.8049
3006	0.809
2997	0.8108
2988	0.8115
2979	0.8089
2970	0.7339
2961	0.7788
2952	0.796
2943	0.8038
2934	0.8065
2925	0.8089
2916	0.8111
2907	0.8134
2898	0.816
2889	0.8188
2880	0.8217
2871	0.824
2862	0.8265
2853	0.8278
2844	0.8268
2835	0.827
2826	0.8288
2817	0.8305
2808	0.8324
2799	0.8349
2790	0.8359
2781	0.8373
2772	0.8385
2763	0.839
2754	0.8396
2745	0.8401
2736	0.8407
2727	0.841
2718	0.8413
2709	0.8416
2700	0.8417
2691	0.8417
2682	0.8418
2673	0.8418
2664	0.842
2655	0.8421
2646	0.8421
2637	0.8423
2628	0.8425
2619	0.8428
2610	0.8432
2601	0.8435
2592	0.8439
2583	0.8441
2574	0.8444
2565	0.8441
2556	0.8439
2547	0.8436
2538	0.8434
2529	0.8431
2520	0.8431
2511	0.8432
2502	0.8433
2493	0.8435
2484	0.8437
2475	0.8436
2466	0.8349
2457	0.8262
2448	0.8283
2439	0.8345
2430	0.838
2421	0.8412
2412	0.8437
2403	0.8453
2394	0.847
2385	0.8482
2376	0.8495
2367	0.8517
2358	0.8543
2349	0.8567
2340	0.8589
2331	0.8603
2322	0.8607
2313	0.8584
2304	0.8564
2295	0.8546
2286	0.8539
2277	0.8537
2268	0.8536
2259	0.8537
2250	0.8536
2241	0.8525
2232	0.8488
2223	0.8421
2214	0.8371
2205	0.8373
2196	0.8418
2187	0.845
2178	0.8481
2169	0.8502
2160	0.8498
2151	0.8485
2142	0.8428
2133	0.8385
2124	0.8408
2115	0.8468
2106	0.8523
2097	0.8548
2088	0.8554
2079	0.8528
2070	0.839
2061	0.815
2052	0.8295
2043	0.8458
2034	0.854
2025	0.8575
2016	0.861
2007	0.8634
1998	0.8661
1989	0.8688
1980	0.8701
1971	0.8718
1962	0.8738
1953	0.8757
1944	0.8728
1935	0.8699
1926	0.8678
1917	0.8667
1908	0.8659
1899	0.8661
1890	0.8664
1881	0.8667
1872	0.8675
1863	0.8684
1854	0.8697
1845	0.8695
1836	0.8658
1827	0.8625
1818	0.8651
1809	0.8671
1800	0.8689
1791	0.8707
1782	0.8724
1773	0.8741
1764	0.8749
1755	0.8755
1746	0.8759
1737	0.8793
1728	0.8827
1719	0.884
1710	0.8832
1701	0.8818
1692	0.8794
1683	0.8771
1674	0.8768
1665	0.8768
1656	0.8757
1647	0.8749
1638	0.8753
1629	0.8742
1620	0.8731
1611	0.872
1602	0.871
1593	0.8709
1584	0.8708
1575	0.8707
1566	0.8706
1557	0.8692
1548	0.8675
1539	0.8661
1530	0.8657
1521	0.867
1512	0.8663
1503	0.8653
1494	0.8643
1485	0.8649
1476	0.8661
1467	0.867
1458	0.8675
1449	0.8671
1440	0.867
1431	0.8668
1422	0.8667
1413	0.8662
1404	0.8645
1395	0.8621
1386	0.8427
1377	0.8435
1368	0.8383
1359	0.8157
1350	0.7961
1341	0.8274
1332	0.8424
1323	0.8384
1314	0.8424
1305	0.8443
1296	0.847
1287	0.8488
1278	0.8496
1269	0.8499
1260	0.8477
1251	0.8495
1242	0.8521
1233	0.8521
1224	0.8346
1215	0.8449
1206	0.8545
1197	0.8574
1188	0.8566
1179	0.8553
1170	0.8542
1161	0.8525
1152	0.8466
1143	0.8361
1134	0.8049
1125	0.6857
1116	0.401
1107	0.0588
1098	0.2517
1089	0.5945
1080	0.7465
1071	0.7814
1062	0.799
1053	0.8106
1044	0.8168
1035	0.8175
1026	0.8114
1017	0.8224
1008	0.835
999	0.8421
990	0.8481
981	0.849
972	0.8483
963	0.8482
954	0.8492
945	0.8498
936	0.8497
927	0.8498
918	0.8535
909	0.8556
900	0.8564
891	0.8571
882	0.8582
873	0.8593
864	0.8601
855	0.8602
846	0.8602
837	0.8606
828	0.8611
819	0.8611
810	0.8597
801	0.8583
792	0.8573
783	0.8564
774	0.8554
765	0.8538
756	0.8507
747	0.8475
738	0.8354
729	0.7681
720	0.41
711	0.6758
702	0.7898
693	0.8198
684	0.8305
675	0.8384
666	0.8434
657	0.8443
648	0.8442
639	0.8443
630	0.8446
621	0.8449
612	0.8435
603	0.8389
594	0.8285
585	0.8014
576	0.5482
567	0.2834
558	0.5889
549	0.7451
540	0.7912
531	0.8075
522	0.8156
513	0.8197
504	0.8204
495	0.8196
486	0.7965
477	0.7815
468	0.7842
459	0.7793
450	0.7604
441	0.7454
432	0.7333
423	0.7241
414	0.7168
405	0.7122
396	0.7094
387	0.7114
