Infrared Spectrum: Diiodomethane
Formula: C H 2 I 2
CAS: 75-11-6
State: gas
Instrument: HP-GC/MS/IRD
Origin: NIST Mass Spectrometry Data Center
1/CM	ABSORBANCE
550	0.0012559
562	0.003553
574	0.0064277
586	0.0033801
598	0.0001406
610	7.41e-05
622	0.0001007
634	9.12e-05
646	1.14e-05
658	0.000114
670	0.0001957
682	0.0002869
694	0.0003762
706	0.0003857
718	0.0005339
730	0.0004598
742	0.0003173
754	0.0002185
766	0.0001311
778	7.79e-05
790	6.65e-05
802	8.93e-05
814	4.75e-05
826	7.79e-05
838	8.74e-05
850	6.27e-05
862	1.52e-05
874	5.13e-05
886	5.32e-05
898	6.46e-05
910	5.89e-05
922	6.46e-05
934	8.17e-05
946	4.37e-05
958	8.17e-05
970	9.12e-05
982	6.08e-05
994	6.46e-05
1006	6.84e-05
1018	8.17e-05
1030	3.99e-05
1042	6.27e-05
1054	9.12e-05
1066	9.69e-05
1078	0.0002774
1090	0.001862
1102	0.0119377
1114	0.0170715
1126	0.0030799
1138	0.0003192
1150	0.0001691
1162	0.000171
1174	0.000133
1186	0.0001406
1198	9.5e-05
1210	0.0001387
1222	0.0002546
1234	0.0001862
1246	6.84e-05
1258	5.13e-05
1270	8.74e-05
1282	7.22e-05
1294	5.32e-05
1306	6.65e-05
1318	5.51e-05
1330	4.56e-05
1342	5.51e-05
1354	4.75e-05
1366	4.37e-05
1378	4.94e-05
1390	3.42e-05
1402	5.51e-05
1414	4.56e-05
1426	6.27e-05
1438	4.94e-05
1450	3.23e-05
1462	3.23e-05
1474	2.47e-05
1486	4.18e-05
1498	3.8e-05
1510	2.85e-05
1522	2.28e-05
1534	1.9e-06
1546	3.8e-05
1558	5.7e-05
1570	4.18e-05
1582	2.85e-05
1594	5.89e-05
1606	3.61e-05
1618	2.66e-05
1630	5.13e-05
1642	5.7e-05
1654	7.22e-05
1666	5.13e-05
1678	3.61e-05
1690	3.61e-05
1702	3.99e-05
1714	5.51e-05
1726	4.37e-05
1738	4.37e-05
1750	7.98e-05
1762	7.22e-05
1774	4.94e-05
1786	1.14e-05
1798	2.09e-05
1810	3.23e-05
1822	3.61e-05
1834	2.66e-05
1846	3.42e-05
1858	4.94e-05
1870	5.13e-05
1882	2.09e-05
1894	4.94e-05
1906	4.56e-05
1918	2.85e-05
1930	3.04e-05
1942	1.14e-05
1954	1.33e-05
1966	2.28e-05
1978	4.56e-05
1990	1.33e-05
2002	2.47e-05
2014	2.28e-05
2026	6.46e-05
2038	7.79e-05
2050	9.5e-05
2062	9.69e-05
2074	0.0001102
2086	0.0001064
2098	9.12e-05
2110	7.03e-05
2122	5.89e-05
2134	8.17e-05
2146	6.08e-05
2158	9.69e-05
2170	3.42e-05
2182	4.18e-05
2194	6.84e-05
2206	7.79e-05
2218	9.12e-05
2230	9.5e-05
2242	7.41e-05
2254	2.47e-05
2266	1.71e-05
2278	4.18e-05
2290	2.85e-05
2302	2.47e-05
2314	3.99e-05
2326	5.13e-05
2338	3.42e-05
2350	3.61e-05
2362	7.6e-05
2374	3.99e-05
2386	2.85e-05
2398	3.23e-05
2410	5.13e-05
2422	7.22e-05
2434	6.65e-05
2446	6.84e-05
2458	9.88e-05
2470	0.0001805
2482	0.0001653
2494	4.56e-05
2506	7.03e-05
2518	4.56e-05
2530	6.27e-05
2542	5.7e-05
2554	0.0001007
2566	9.31e-05
2578	9.69e-05
2590	8.17e-05
2602	6.46e-05
2614	8.93e-05
2626	6.08e-05
2638	0.0001026
2650	0.0001064
2662	7.41e-05
2674	9.5e-05
2686	0.0001064
2698	8.17e-05
2710	0.0001197
2722	8.17e-05
2734	0.0001178
2746	0.0001197
2758	7.98e-05
2770	9.88e-05
2782	0.0001026
2794	8.17e-05
2806	0.0001045
2818	9.69e-05
2830	0.0001064
2842	9.5e-05
2854	0.0001197
2866	9.31e-05
2878	0.0001064
2890	0.000114
2902	9.69e-05
2914	0.0001045
2926	0.0001216
2938	8.74e-05
2950	0.0001292
2962	0.0001311
2974	0.0001197
2986	0.0001406
2998	0.0001349
3010	0.0001539
3022	0.0001368
3034	0.0001843
3046	0.0002698
3058	0.0003078
3070	0.0003268
3082	0.0003078
3094	0.0002622
3106	0.0002413
3118	0.0001843
3130	0.0001311
3142	9.31e-05
3154	8.55e-05
3166	0.0001311
3178	0.0001368
3190	0.0001197
3202	0.0001387
3214	0.0001026
3226	0.0001026
3238	9.31e-05
3250	0.0001178
3262	0.0001292
3274	7.98e-05
3286	0.0001007
3298	7.41e-05
3310	0.0001102
3322	9.69e-05
3334	0.0001045
3346	8.74e-05
3358	6.46e-05
3370	0.0001273
3382	8.74e-05
3394	0.0001083
3406	8.74e-05
3418	4.56e-05
3430	7.6e-05
3442	8.36e-05
3454	8.74e-05
3466	6.84e-05
3478	0.0001045
3490	8.36e-05
3502	6.65e-05
3514	9.12e-05
3526	2.47e-05
3538	9.12e-05
3550	9.69e-05
3562	7.98e-05
3574	9.12e-05
3586	7.6e-05
3598	6.08e-05
3610	7.03e-05
3622	6.84e-05
3634	5.7e-05
3646	8.17e-05
3658	3.8e-05
3670	9.31e-05
3682	3.23e-05
3694	3.42e-05
3706	7.79e-05
3718	3.42e-05
3730	1.14e-05
3742	8.36e-05
3754	6.08e-05
3766	6.08e-05
3778	3.8e-05
3790	3.61e-05
3802	3.23e-05
3814	8.55e-05
3826	2.47e-05
3838	6.65e-05
