Infrared Spectrum: METHYLENE IODIDE
Formula: C H2 I2
CAS: 75-11-6
State: LIQUID
Class: COBLENTZ
Instrument: PERKIN-ELMER
Sampling: TRANSMISSION
Path length: 0.0024 CM
Resolution: 4
Origin: STANDARD OIL OF OHIO
MICROMETERS	TRANSMITTANCE
2.027	0.977
2.06087	0.979
2.09475	0.981
2.12862	0.981
2.16249	0.982
2.19637	0.982
2.23024	0.979
2.26411	0.94
2.29799	0.883
2.33186	0.974
2.36573	0.981
2.3996	0.979
2.43348	0.907
2.46735	0.909
2.50122	0.974
2.5351	0.982
2.56897	0.986
2.60284	0.986
2.63672	0.979
2.67059	0.95
2.70446	0.979
2.73834	0.981
2.77221	0.982
2.80608	0.977
2.83996	0.979
2.87383	0.977
2.9077	0.977
2.94158	0.979
2.97545	0.977
3.00932	0.979
3.04319	0.979
3.07707	0.977
3.11094	0.97
3.14481	0.96
3.17869	0.941
3.21256	0.9
3.24643	0.425
3.28031	0.478
3.31418	0.883
3.34805	0.806
3.38193	0.871
3.4158	0.938
3.44967	0.952
3.48355	0.962
3.51742	0.969
3.55129	0.979
3.58517	0.986
3.61904	0.988
3.65291	0.989
3.68679	0.989
3.72066	0.988
3.75453	0.986
3.7884	0.989
3.82228	0.991
3.85615	0.989
3.89002	0.989
3.9239	0.988
3.95777	0.986
3.99164	0.988
4.02552	0.986
4.05939	0.955
4.09326	0.947
4.12714	0.974
4.16101	0.981
4.19488	0.984
4.22876	0.986
4.26263	0.991
4.2965	0.991
4.33038	0.991
4.36425	0.988
4.39812	0.982
4.43199	0.979
4.46587	0.974
4.49974	0.941
4.53361	0.933
4.56749	0.962
4.60136	0.967
4.63523	0.95
4.66911	0.926
4.70298	0.943
4.73685	0.964
4.77073	0.965
4.8046	0.948
4.83847	0.851
4.87235	0.9
4.90622	0.964
4.94009	0.977
4.97397	0.982
5.00784	0.986
5.04171	0.984
5.07558	0.986
5.10946	0.986
5.14333	0.986
5.1772	0.984
5.21108	0.984
5.24495	0.986
5.27882	0.986
5.3127	0.989
5.34657	0.988
5.38044	0.984
5.41432	0.974
5.44819	0.972
5.48206	0.982
5.51594	0.986
5.54981	0.989
5.58368	0.989
5.61756	0.988
5.65143	0.982
5.6853	0.974
5.71917	0.976
5.75305	0.979
5.78692	0.982
5.82079	0.986
5.85467	0.986
5.88854	0.986
5.92241	0.984
5.95629	0.984
5.99016	0.984
6.02403	0.984
6.05791	0.984
6.09178	0.984
6.12565	0.986
6.15953	0.986
6.1934	0.984
6.22727	0.981
6.26115	0.981
6.29502	0.984
6.32889	0.988
6.36277	0.989
6.39664	0.988
6.43051	0.989
6.46438	0.989
6.49826	0.989
6.53213	0.988
6.566	0.988
6.59988	0.984
6.63375	0.984
6.66762	0.981
6.7015	0.979
6.73537	0.977
6.76924	0.974
6.80312	0.969
6.83699	0.965
6.87086	0.962
6.90474	0.96
6.93861	0.957
6.97248	0.955
7.00636	0.955
7.04023	0.955
7.0741	0.958
7.10797	0.958
7.14185	0.958
7.17572	0.955
7.20959	0.947
7.24347	0.936
7.27734	0.921
7.31121	0.9
7.34509	0.854
7.37896	0.798
7.41283	0.806
7.44671	0.851
7.48058	0.89
7.51445	0.921
7.54833	0.933
7.5822	0.945
7.61607	0.952
7.64995	0.955
7.68382	0.96
7.71769	0.962
7.75156	0.962
7.78544	0.96
7.81931	0.957
7.85318	0.962
7.88706	0.962
7.92093	0.96
7.9548	0.962
7.98868	0.96
8.02255	0.957
8.05642	0.955
8.0903	0.945
8.12417	0.914
8.15804	0.882
8.19192	0.904
8.22579	0.929
8.25966	0.943
8.29354	0.952
8.32741	0.953
8.36128	0.95
8.39515	0.947
8.42903	0.94
8.4629	0.924
8.49677	0.914
8.53065	0.916
8.56452	0.916
8.59839	0.907
8.63227	0.9
8.66614	0.882
8.70001	0.858
8.73389	0.837
8.76776	0.805
8.80163	0.769
8.83551	0.702
8.86938	0.593
8.90325	0.408
8.93713	0.215
8.971	0.085
9.00487	0.02
9.03875	0.005
9.07262	0.008
9.10649	0.044
9.14036	0.362
9.17424	0.435
9.20811	0.598
9.24198	0.661
9.27586	0.716
9.30973	0.755
9.3436	0.786
9.37748	0.81
9.41135	0.827
9.44522	0.839
9.4791	0.847
9.51297	0.854
9.54684	0.859
9.58072	0.858
9.61459	0.849
9.64846	0.829
9.68234	0.82
9.71621	0.823
9.75008	0.842
9.78395	0.861
9.81783	0.882
9.8517	0.902
9.88557	0.912
9.91945	0.921
9.95332	0.928
9.98719	0.933
10.0211	0.938
10.0549	0.941
10.0888	0.943
10.1227	0.947
10.1566	0.952
10.1904	0.952
10.2243	0.953
10.2582	0.955
10.2921	0.957
10.3259	0.96
10.3598	0.962
10.3937	0.964
10.4275	0.965
10.4614	0.967
10.4953	0.969
10.5292	0.969
10.563	0.97
10.5969	0.97
10.6308	0.97
10.6647	0.972
10.6985	0.972
10.7324	0.97
10.7663	0.97
10.8001	0.969
10.834	0.969
10.8679	0.969
10.9018	0.967
10.9356	0.967
10.9695	0.967
11.0034	0.967
11.0373	0.967
11.0711	0.967
11.105	0.967
11.1389	0.969
11.1728	0.969
11.2066	0.969
11.2405	0.969
11.2744	0.969
11.3082	0.97
11.3421	0.972
11.376	0.972
11.4099	0.972
11.4437	0.974
11.4776	0.974
11.5115	0.976
11.5454	0.976
11.5792	0.977
11.6131	0.977
11.647	0.977
11.6809	0.976
11.7147	0.976
11.7486	0.976
11.7825	0.976
11.8163	0.977
11.8502	0.976
11.8841	0.972
11.918	0.969
11.9518	0.965
11.9857	0.964
12.0196	0.964
12.0535	0.965
12.0873	0.967
12.1212	0.969
12.1551	0.969
12.1889	0.967
12.2228	0.967
12.2567	0.965
12.2906	0.962
12.3244	0.96
12.3583	0.96
12.3922	0.958
12.4261	0.958
12.4599	0.955
12.4938	0.953
12.5277	0.952
12.5616	0.948
12.5954	0.947
12.6293	0.945
12.6632	0.945
12.697	0.943
12.7309	0.943
12.7648	0.941
12.7987	0.94
12.8325	0.936
12.8664	0.935
12.9003	0.933
12.9342	0.933
12.968	0.933
13.0019	0.933
13.0358	0.931
13.0697	0.929
13.1035	0.929
13.1374	0.928
13.1713	0.926
13.2051	0.924
13.239	0.923
13.2729	0.917
13.3068	0.914
13.3406	0.912
13.3745	0.909
13.4084	0.905
13.4423	0.9
13.4761	0.894
13.51	0.885
13.5439	0.871
13.5777	0.861
13.6116	0.849
13.6455	0.825
13.6794	0.8
13.7132	0.767
13.7471	0.736
13.781	0.675
13.8149	0.608
13.8487	0.536
13.8826	0.418
13.9165	0.312
13.9504	0.21
13.9842	0.136
14.0181	0.128
14.052	0.169
14.0858	0.287
14.1197	0.394
14.1536	0.512
14.1875	0.613
14.2213	0.676
14.2552	0.728
14.2891	0.765
14.323	0.788
14.3568	0.803
14.3907	0.817
14.4246	0.822
14.4585	0.83
14.4923	0.835
14.5262	0.841
14.5601	0.844
14.5939	0.847
14.6278	0.849
14.6617	0.849
14.6956	0.849
14.7294	0.849
14.7633	0.849
14.7972	0.849
14.8311	0.847
14.8649	0.846
14.8988	0.846
14.9327	0.844
14.9665	0.844
15.0004	0.851
15.0343	0.844
15.0682	0.837
15.102	0.835
15.1359	0.832
15.1698	0.829
15.2037	0.825
15.2375	0.825
15.2714	0.823
15.3053	0.822
15.3392	0.82
15.373	0.82
15.4069	0.82
