Infrared Spectrum: ETHYLENE CARBONATE
Formula: C3 H4 O3
CAS: 96-49-1
State: LIQUID (NEAT)
Class: COBLENTZ III
Instrument: PERKIN-ELMER 521 (GRATING)
Instrument parameters: FILTERS AT 3150, 2500, 2000, 1150, 700, 410 AND GRATING CHANGES AT 2000, 630 CM^-^1
Sampling: TRANSMISSION
Path length: SMEAR, CsBr CRYSTALS
Resolution: 4
Origin: STANDARD OIL OF OHIO
1/CM	TRANSMITTANCE
308.299	0.923
317.851	0.919
327.403	0.916
336.956	0.907
346.508	0.898
356.06	0.895
365.612	0.891
375.165	0.889
384.717	0.88
394.269	0.875
403.821	0.865
413.374	0.869
422.926	0.867
432.478	0.864
442.03	0.864
451.583	0.866
461.135	0.867
470.687	0.867
480.239	0.867
489.792	0.867
499.344	0.869
508.896	0.869
518.448	0.867
528	0.828
537.553	0.872
547.105	0.882
556.657	0.888
566.209	0.892
575.762	0.897
585.314	0.902
594.866	0.909
604.418	0.915
613.971	0.915
623.523	0.916
633.075	0.919
642.627	0.92
652.18	0.915
661.732	0.907
671.284	0.897
680.836	0.873
690.389	0.845
699.941	0.827
709.493	0.717
719.045	0.259
728.598	0.847
738.15	0.878
747.702	0.852
757.254	0.828
766.806	0.563
776.359	0.238
785.911	0.711
795.463	0.84
805.015	0.871
814.568	0.88
824.12	0.883
833.672	0.883
843.224	0.88
852.777	0.878
862.329	0.877
871.881	0.87
881.433	0.859
890.986	0.632
900.538	0.811
910.09	0.859
919.642	0.863
929.195	0.861
938.747	0.855
948.299	0.833
957.851	0.757
967.403	0.464
976.956	0.333
986.508	0.669
996.06	0.747
1005.61	0.751
1015.16	0.727
1024.72	0.734
1034.27	0.727
1043.82	0.665
1053.37	0.516
1062.93	0.189
1072.48	0.098
1082.03	0.135
1091.58	0.283
1101.13	0.479
1110.69	0.522
1120.24	0.509
1129.79	0.432
1139.34	0.304
1148.9	0.191
1158.45	0.125
1168	0.127
1177.55	0.155
1187.1	0.23
1196.66	0.38
1206.21	0.475
1215.76	0.458
1225.31	0.46
1234.87	0.567
1244.42	0.645
1253.97	0.723
1263.52	0.752
1273.08	0.777
1282.63	0.797
1292.18	0.811
1301.73	0.819
1311.28	0.82
1320.84	0.82
1330.39	0.817
1339.94	0.81
1349.49	0.788
1359.05	0.752
1368.6	0.676
1378.15	0.552
1387.7	0.252
1397.25	0.297
1406.81	0.644
1416.36	0.608
1425.91	0.679
1435.46	0.798
1445.02	0.804
1454.57	0.797
1464.12	0.767
1473.67	0.539
1483.22	0.348
1492.78	0.64
1502.33	0.757
1511.88	0.815
1521.43	0.832
1530.99	0.828
1540.54	0.779
1550.09	0.666
1559.64	0.755
1569.19	0.834
1578.75	0.839
1588.3	0.835
1597.85	0.823
1607.4	0.821
1616.96	0.82
1626.51	0.811
1636.06	0.811
1645.61	0.821
1655.16	0.825
1664.72	0.814
1674.27	0.791
1683.82	0.735
1693.37	0.728
1702.93	0.733
1712.48	0.742
1722.03	0.732
1731.58	0.666
1741.13	0.527
1750.69	0.426
1760.24	0.266
1769.79	0.1
1779.34	0.107
1788.9	0.119
1798.45	0.08
1808	0.084
1817.55	0.107
1827.11	0.161
1836.66	0.251
1846.21	0.325
1855.76	0.35
1865.31	0.344
1874.87	0.476
1884.42	0.61
1893.97	0.684
1903.52	0.726
1913.08	0.747
1922.63	0.765
1932.18	0.766
1941.73	0.758
1951.28	0.726
1960.84	0.6
1970.39	0.652
1979.94	0.747
1989.49	0.795
1999.05	0.802
2008.6	0.8
2018.15	0.7945
2027.7	0.787
2037.25	0.778
2046.81	0.7825
2056.36	0.7937
2065.91	0.8086
2075.46	0.8215
2085.02	0.8265
2094.57	0.829
2104.12	0.829
2113.67	0.829
2123.22	0.828
2132.78	0.828
2142.33	0.828
2151.88	0.828
2161.43	0.828
2170.99	0.828
2180.54	0.828
2190.09	0.829
2199.64	0.8294
2209.19	0.8242
2218.75	0.8208
2228.3	0.8154
2237.85	0.815
2247.4	0.815
2256.96	0.813
2266.51	0.813
2276.06	0.806
2285.61	0.8003
2295.16	0.7877
2304.72	0.7687
2314.27	0.765
2323.82	0.7657
2333.37	0.7751
2342.93	0.7827
2352.48	0.7941
2362.03	0.801
2371.58	0.8077
2381.13	0.8124
2390.69	0.8167
2400.24	0.8217
2409.79	0.823
2419.34	0.823
2428.9	0.823
2438.45	0.8223
2448	0.8213
2457.55	0.8212
2467.11	0.821
2476.66	0.8137
2486.21	0.8082
2495.76	0.8123
2505.31	0.8047
2514.87	0.801
2524.42	0.7984
2533.97	0.7952
2543.52	0.7918
2553.08	0.7948
2562.63	0.8008
2572.18	0.8078
2581.73	0.813
2591.28	0.813
2600.84	0.813
2610.39	0.814
2619.94	0.816
2629.49	0.8141
2639.05	0.814
2648.6	0.8101
2658.15	0.8109
2667.7	0.813
2677.25	0.813
2686.81	0.8046
2696.36	0.8011
2705.91	0.802
2715.46	0.8089
2725.02	0.809
2734.57	0.809
2744.12	0.8091
2753.67	0.8071
2763.22	0.803
2772.78	0.803
2782.33	0.8069
2791.88	0.807
2801.43	0.807
2810.99	0.805
2820.54	0.804
2830.09	0.8
2839.64	0.7921
2849.19	0.7771
2858.75	0.777
2868.3	0.775
2877.85	0.771
2887.4	0.764
2896.96	0.746
2906.51	0.7009
2916.06	0.6266
2925.61	0.5279
2935.16	0.5957
2944.72	0.6862
2954.27	0.6949
2963.82	0.6728
2973.37	0.6538
2982.93	0.5993
2992.48	0.5484
3002.03	0.5854
3011.58	0.6456
3021.13	0.6774
3030.69	0.7047
3040.24	0.7355
3049.79	0.7592
3059.34	0.7701
3068.9	0.775
3078.45	0.778
3088	0.78
3097.55	0.784
3107.11	0.785
3116.66	0.785
3126.21	0.785
3135.76	0.788
3145.31	0.788
3154.87	0.786
3164.42	0.785
3173.97	0.785
3183.52	0.785
3193.08	0.7848
3202.63	0.784
3212.18	0.7816
3221.73	0.784
3231.28	0.7838
3240.84	0.7798
3250.39	0.778
3259.94	0.7784
3269.49	0.78
3279.05	0.779
3288.6	0.777
3298.15	0.776
3307.7	0.775
3317.25	0.7718
3326.81	0.77
3336.36	0.769
3345.91	0.765
3355.46	0.763
3365.02	0.76
3374.57	0.757
3384.12	0.7537
3393.67	0.752
3403.22	0.751
3412.78	0.748
3422.33	0.747
3431.88	0.746
3441.43	0.7447
3450.99	0.7397
3460.54	0.7354
3470.09	0.733
3479.64	0.7293
3489.19	0.7223
3498.75	0.7103
3508.3	0.6973
3517.85	0.6829
3527.4	0.6603
3536.96	0.6563
3546.51	0.6473
3556.06	0.6396
3565.61	0.6394
3575.16	0.6454
3584.72	0.653
3594.27	0.651
3603.82	0.653
3613.37	0.6558
3622.93	0.66
3632.48	0.6622
3642.03	0.6774
3651.58	0.6851
3661.13	0.7092
3670.69	0.7422
3680.24	0.7537
3689.79	0.767
3699.34	0.7705
3708.9	0.777
3718.45	0.777
3728	0.7785
3737.55	0.779
3747.11	0.777
3756.66	0.774
3766.21	0.773
3775.76	0.773
3785.31	0.773
3794.87	0.776
3804.42	0.7725
3813.97	0.775
3823.52	0.774
3833.08	0.776
3842.63	0.7771
3852.18	0.7728
3861.73	0.769
3871.28	0.767
3880.84	0.766
3890.39	0.7664
