Infrared Spectrum: ETHYLENE CARBONATE
Formula: C3 H4 O3
CAS: 96-49-1
State: SOLID
Boiling point: 248 C
Class: COBLENTZ
Instrument: Not specified, most likely a prism, grating, or hybrid spectrometer.
Sampling: TRANSMISSION
Path length: SMEAR
Resolution: 4
Origin: WYANDOTTE CHEMICALS CORP., WYANDOTTE, MICHIGAN, USA
MICROMETERS	TRANSMITTANCE
2.011	0.968
2.05091	0.973
2.09082	0.975
2.13073	0.975
2.17065	0.976
2.21056	0.975
2.25047	0.963
2.29038	0.965
2.33029	0.973
2.3702	0.975
2.41011	0.975
2.45003	0.971
2.48994	0.971
2.52985	0.973
2.56976	0.973
2.60967	0.975
2.64958	0.976
2.68949	0.976
2.72941	0.973
2.76932	0.92
2.80923	0.835
2.84914	0.792
2.88905	0.807
2.92896	0.853
2.96887	0.873
3.00879	0.877
3.0487	0.885
3.08861	0.903
3.12852	0.916
3.16843	0.93
3.20834	0.941
3.24825	0.941
3.28817	0.928
3.32808	0.838
3.36799	0.671
3.4079	0.74
3.44781	0.774
3.48772	0.852
3.52763	0.906
3.56754	0.945
3.60746	0.95
3.64737	0.955
3.68728	0.961
3.72719	0.958
3.7671	0.955
3.80701	0.968
3.84692	0.971
3.88684	0.971
3.92675	0.968
3.96666	0.941
4.00657	0.933
4.04648	0.951
4.08639	0.961
4.1263	0.98
4.16622	0.981
4.20613	0.98
4.24604	0.955
4.28595	0.867
4.32586	0.843
4.36577	0.867
4.40568	0.94
4.4456	0.958
4.48551	0.963
4.52542	0.968
4.56533	0.978
4.60524	0.978
4.64515	0.978
4.68506	0.978
4.72498	0.976
4.76489	0.975
4.8048	0.96
4.84471	0.933
4.88462	0.898
4.92453	0.897
4.96444	0.918
5.00436	0.935
5.04427	0.92
5.08418	0.765
5.12409	0.737
5.164	0.847
5.20391	0.863
5.24382	0.832
5.28374	0.775
5.32365	0.651
5.36356	0.411
5.40347	0.36
5.44338	0.3
5.48329	0.141
5.5232	0.024
5.56312	0.014
5.60303	0.056
5.64294	0.024
5.68285	0.191
5.72276	0.388
5.76267	0.529
5.80258	0.7
5.8425	0.75
5.88241	0.745
5.92232	0.727
5.96223	0.762
6.00214	0.813
6.04205	0.877
6.08196	0.92
6.12187	0.941
6.16179	0.948
6.2017	0.951
6.24161	0.933
6.28152	0.908
6.32143	0.943
6.36134	0.938
6.40125	0.86
6.44117	0.71
6.48108	0.797
6.52099	0.873
6.5609	0.892
6.60081	0.885
6.64072	0.792
6.68063	0.681
6.72055	0.451
6.76046	0.43
6.80037	0.732
6.84028	0.802
6.88019	0.818
6.9201	0.818
6.96001	0.8
6.99993	0.707
7.03984	0.571
7.07975	0.674
7.11966	0.574
7.15957	0.287
7.19948	0.2
7.23939	0.428
7.27931	0.624
7.31922	0.682
7.35913	0.725
7.39904	0.79
7.43895	0.822
7.47886	0.85
7.51877	0.86
7.55869	0.865
7.5986	0.862
7.63851	0.853
7.67842	0.848
7.71833	0.828
7.75824	0.8
7.79815	0.777
7.83807	0.73
7.87798	0.681
7.91789	0.639
7.9578	0.631
7.99771	0.641
8.03762	0.626
8.07753	0.593
8.11745	0.546
8.15736	0.475
8.19727	0.431
8.23718	0.451
8.27709	0.471
8.317	0.463
8.35691	0.373
8.39683	0.265
8.43674	0.167
8.47665	0.099
8.51656	0.061
8.55647	0.044
8.59638	0.039
8.63629	0.046
8.6762	0.088
8.71612	0.162
8.75603	0.244
8.79594	0.315
8.83585	0.385
8.87576	0.435
8.91567	0.466
8.95558	0.483
8.9955	0.491
9.03541	0.485
9.07532	0.448
9.11523	0.375
9.15514	0.249
9.19505	0.109
9.23496	0.049
9.27488	0.031
9.31479	0.028
9.3547	0.036
9.39461	0.117
9.43452	0.259
9.47443	0.377
9.51434	0.473
9.55426	0.546
9.59417	0.588
9.63408	0.614
9.67399	0.637
9.7139	0.649
9.75381	0.657
9.79372	0.659
9.83364	0.662
9.87355	0.674
9.91346	0.692
9.95337	0.712
9.99328	0.724
10.0332	0.725
10.0731	0.719
10.113	0.689
10.1529	0.627
10.1928	0.521
10.2327	0.36
10.2727	0.27
10.3126	0.282
10.3525	0.426
10.3924	0.589
10.4323	0.699
10.4722	0.774
10.5121	0.808
10.552	0.832
10.592	0.848
10.6319	0.87
10.6718	0.885
10.7117	0.897
10.7516	0.903
10.7915	0.908
10.8314	0.913
10.8713	0.913
10.9112	0.913
10.9512	0.913
10.9911	0.911
11.031	0.901
11.0709	0.878
11.1108	0.825
11.1507	0.72
11.1906	0.599
11.2305	0.669
11.2704	0.802
11.3104	0.848
11.3503	0.87
11.3902	0.877
11.4301	0.888
11.47	0.9
11.5099	0.905
11.5498	0.908
11.5897	0.908
11.6296	0.91
11.6696	0.911
11.7095	0.915
11.7494	0.916
11.7893	0.916
11.8292	0.918
11.8691	0.918
11.909	0.925
11.9489	0.928
11.9889	0.93
12.0288	0.931
12.0687	0.931
12.1086	0.933
12.1485	0.933
12.1884	0.931
12.2283	0.931
12.2682	0.928
12.3081	0.926
12.3481	0.92
12.388	0.915
12.4279	0.908
12.4678	0.9
12.5077	0.882
12.5476	0.863
12.5875	0.837
12.6274	0.802
12.6673	0.765
12.7073	0.704
12.7472	0.598
12.7871	0.415
12.827	0.262
12.8669	0.191
12.9068	0.171
12.9467	0.227
12.9866	0.363
13.0265	0.516
13.0665	0.639
13.1064	0.707
13.1463	0.755
13.1862	0.784
13.2261	0.795
13.266	0.797
13.3059	0.81
13.3458	0.83
13.3858	0.842
13.4257	0.852
13.4656	0.857
13.5055	0.858
13.5454	0.858
13.5853	0.857
13.6252	0.848
13.6651	0.835
13.705	0.817
13.745	0.782
13.7849	0.722
13.8248	0.607
13.8647	0.433
13.9046	0.29
13.9445	0.25
13.9844	0.32
14.0243	0.471
14.0642	0.588
14.1042	0.667
14.1441	0.712
14.184	0.732
14.2239	0.739
14.2638	0.742
14.3037	0.74
14.3436	0.74
14.3835	0.739
14.4234	0.74
14.4634	0.742
14.5033	0.744
14.5432	0.747
14.5831	0.752
14.623	0.755
14.6629	0.759
14.7028	0.76
14.7427	0.762
14.7827	0.764
14.8226	0.764
14.8625	0.764
14.9024	0.764
14.9423	0.764
14.9822	0.76
15.0221	0.755
15.062	0.755
15.1019	0.755
15.1419	0.755
15.1818	0.755
15.2217	0.755
15.2616	0.755
15.3015	0.754
15.3414	0.755
15.3813	0.754
15.4212	0.755
15.4611	0.754
15.5011	0.754
15.541	0.754
15.5809	0.755
15.6208	0.757
15.6607	0.757
15.7006	0.759
15.7405	0.764
15.7804	0.765
15.8203	0.767
15.8603	0.77
15.9002	0.774
15.9401	0.777
15.98	0.784
