Infrared Spectrum: Ethene, (2-chloroethoxy)-
Formula: C 4 H 7 Cl O
CAS: 110-75-8
State: gas
Origin: Sadtler Research Labs Under US-EPA Contract
1/CM	ABSORBANCE
450	0.0266148
462	0.0267397
474	0.0121828
486	0.0178057
498	0.00862169
510	0.00531046
522	0.0193051
534	0.014307
546	0.00893407
558	0.0181805
570	0.00955883
582	0.022054
594	0.0172434
606	0.0184929
618	0.0158689
630	0.0108708
642	0.0172434
654	0.0201173
666	0.0346117
678	0.0715975
690	0.0760333
702	0.0451077
714	0.0298635
726	0.0255527
738	0.033737
750	0.0621636
762	0.134636
774	0.132762
786	0.0464197
798	0.059977
810	0.107396
822	0.149193
834	0.140633
846	0.117392
858	0.0773453
870	0.0569156
882	0.0528547
894	0.0545415
906	0.0596646
918	0.0664745
930	0.0830306
942	0.108146
954	0.127076
966	0.130138
978	0.0895281
990	0.0649126
1002	0.114706
1014	0.126139
1026	0.0708478
1038	0.0771579
1050	0.0765956
1062	0.0841552
1074	0.136135
1086	0.189052
1098	0.134636
1110	0.0721598
1122	0.0569781
1134	0.109583
1146	0.185491
1158	0.203422
1170	0.276956
1182	0.397535
1194	0.497871
1206	0.62476
1218	0.452764
1230	0.174933
1242	0.0848424
1254	0.0793445
1266	0.0731594
1278	0.0536669
1290	0.0687861
1302	0.103148
1314	0.161563
1326	0.170122
1338	0.096213
1350	0.040422
1362	0.056041
1374	0.0811563
1386	0.0589773
1398	0.03255
1410	0.0319252
1422	0.0294887
1434	0.0356738
1446	0.0411092
1458	0.0474193
1470	0.0486688
1482	0.0342368
1494	0.0211794
1506	0.0149318
1518	0.0184929
1530	0.0224289
1542	0.0158064
1554	0.0200548
1566	0.023366
1578	0.0274894
1590	0.0571031
1602	0.135635
1614	0.351677
1626	0.424899
1638	0.362548
1650	0.323188
1662	0.143695
1674	0.0837803
1686	0.0352365
1698	0.0232411
1710	0.0239283
1722	0.0210544
1734	0.011808
1746	0.0124327
1758	0.0136198
1770	0.0100586
1782	0.0102461
1794	0.00668493
1806	0.00537294
1818	0.00574779
1830	0.00481065
1842	0.00687236
1854	0.00799693
1866	0.00949635
1878	0.0093714
1890	0.0075596
1902	0.0080594
1914	0.0101211
1926	0.00862169
1938	0.00699731
1950	0.0080594
1962	0.00724722
1974	0.00724722
1986	0.00749712
1998	0.0078095
2010	0.00874664
2022	0.00899654
2034	0.00674741
2046	0.00593522
2058	0.00568532
2070	0.00556036
2082	0.0075596
2094	0.00668493
2106	0.00643503
2118	0.0062476
2130	0.00637255
2142	0.0078095
2154	0.00855921
2166	0.00637255
2178	0.00637255
2190	0.00543541
2202	0.00499808
2214	0.00474818
2226	0.00387351
2238	0.00387351
2250	0.00456075
2262	0.00399846
2274	0.00449827
2286	0.00524798
2298	0.00543541
2310	0.00593522
2322	0.00318628
2334	0.00149942
2346	0.00306132
2358	0.00349866
2370	0.00224914
2382	0.00449827
2394	0.00293637
2406	0.00324875
2418	0.00281142
2430	0.00143695
2442	0.00199923
2454	0.00187428
2466	0.00162438
2478	0.00199923
2490	0.00199923
2502	0.00224914
2514	0.00318628
2526	0.00331123
2538	0.00318628
2550	0.00274894
2562	0.00231161
2574	0.00268647
2586	0.00237409
2598	0.00143695
2610	0.0018118
2622	0.00137447
2634	0.00031238
2646	0.000687236
2658	0.000687236
2670	0.000499808
2682	0.00093714
2694	0.00212418
2706	0.00531046
2718	0.0059977
2730	0.00643503
2742	0.00687236
2754	0.00543541
2766	0.0049356
2778	0.00518551
2790	0.00531046
2802	0.00762207
2814	0.00930892
2826	0.0108708
2838	0.0139321
2850	0.020742
2862	0.0352989
2874	0.0486063
2886	0.0554162
2898	0.0558535
2910	0.0549164
2922	0.0587899
2934	0.0639129
2946	0.0679739
2958	0.0769704
2970	0.0865293
2982	0.0849049
2994	0.0617888
3006	0.0462947
3018	0.0387976
3030	0.0315504
3042	0.0223664
3054	0.0193051
3066	0.0224914
3078	0.0209295
3090	0.0184304
3102	0.016931
3114	0.0189927
3126	0.0386726
3138	0.0298635
3150	0.0059977
3162	0.00349866
3174	0.00212418
3186	0.00143695
3198	0.00162438
3210	0.00137447
3222	0.00106209
3234	0.00249904
3246	0.00187428
3258	0.00124952
3270	0.00212418
3282	0.000187428
3294	0.00262399
3306	0.00262399
3318	0.000124952
3330	0.00224914
3342	0.00249904
3354	0.00256152
3366	0.00299885
3378	0.00237409
3390	0.00274894
3402	0.00174933
3414	0.0031238
3426	0.00412342
3438	0.00268647
3450	0.00249904
3462	0.00381104
3474	0.00331123
3486	0.00218666
3498	0.00137447
3510	0.00249904
3522	0.00362361
3534	0.00374856
3546	0.00343618
3558	0.00481065
3570	0.00199923
3582	0.00281142
3594	0.00437332
3606	0.00381104
3618	0.00224914
3630	0.00318628
3642	0.00381104
3654	0.00387351
3666	0.00387351
3678	0.0015619
3690	0.0018118
3702	0.000499808
3714	0.000687236
3726	0.00793445
3738	0.00356113
3750	0.00137447
3762	0.00324875
3774	0.00712226
3786	0.00249904
3798	0.00612265
3810	0.0015619
3822	0.00168685
3834	0.000999616
3846	0.00487313
3858	0.00143695
3870	0.00412342
3882	0.0033737
3894	0.00193676
3906	0.00456075
3918	0.00281142
3930	0.00299885
3942	0.00431084
3954	0.0018118
3966	0.00549789
