Infrared Spectrum: Ethyl nitrate
Formula: C2 H5 N O3
CAS: 625-58-1
State: GAS (30 mmHg, N2 ADDED, TOTAL PRESSURE 600 mmHg)
Class: COBLENTZ
Instrument: DOW KBr FOREPRISM-GRATING
Instrument parameters: GRATING CHANGED AT 5.0, 7.5, 15.0 MICRON
Sampling: TRANSMISSION
Path length: 5 CM
Resolution: 2
Origin: DOW CHEMICAL COMPANY
1/CM	TRANSMITTANCE
463	0.8527
472	0.8562
481	0.8583
490	0.859
499	0.8583
508	0.8563
517	0.8544
526	0.8525
535	0.8498
544	0.8452
553	0.8363
562	0.819
571	0.8191
580	0.8337
589	0.8516
598	0.8613
607	0.8632
616	0.8508
625	0.8252
634	0.6773
643	0.5705
652	0.5743
661	0.7472
670	0.7879
679	0.7815
688	0.7324
697	0.648
706	0.6022
715	0.6702
724	0.8529
733	0.8572
742	0.8362
751	0.7932
760	0.7235
769	0.6833
778	0.7026
787	0.7871
796	0.8154
805	0.8213
814	0.809
823	0.7673
832	0.6462
841	0.0951
850	0.0129
859	0.0127
868	0.0468
877	0.3392
886	0.5859
895	0.5046
904	0.3692
913	0.2233
922	0.3519
931	0.5969
940	0.7139
949	0.7508
958	0.8385
967	0.847
976	0.836
985	0.8181
994	0.783
1003	0.703
1012	0.4367
1021	0.1112
1030	0.1096
1039	0.1514
1048	0.59
1057	0.7551
1066	0.772
1075	0.7608
1084	0.7161
1093	0.6974
1102	0.7335
1111	0.7416
1120	0.7077
1129	0.7148
1138	0.7982
1147	0.8102
1156	0.8021
1165	0.8077
1174	0.83
1183	0.8361
1192	0.8304
1201	0.8345
1210	0.8417
1219	0.8335
1228	0.8313
1237	0.8154
1246	0.8003
1255	0.7706
1264	0.6132
1273	0.0852
1282	0.006
1291	0.0071
1300	0.0651
1309	0.5714
1318	0.7719
1327	0.8196
1336	0.8295
1345	0.8264
1354	0.7743
1363	0.6696
1372	0.6244
1381	0.5795
1390	0.6507
1399	0.6696
1408	0.7287
1417	0.7568
1426	0.7621
1435	0.7326
1444	0.6359
1453	0.5431
1462	0.5455
1471	0.6043
1480	0.6425
1489	0.6951
1498	0.7475
1507	0.7961
1516	0.8128
1525	0.8083
1534	0.8145
1543	0.8086
1552	0.8078
1561	0.8031
1570	0.8091
1579	0.8142
1588	0.8266
1597	0.825
1606	0.7954
1615	0.7214
1624	0.5626
1633	0.2455
1642	0.009
1651	0
1660	0
1669	0
1678	0.0319
1687	0.4622
1696	0.6859
1705	0.7858
1714	0.8087
1723	0.8089
1732	0.7996
1741	0.7841
1750	0.7839
1759	0.8
1768	0.8221
1777	0.8377
1786	0.8501
1795	0.8587
1804	0.8642
1813	0.8684
1822	0.8679
1831	0.8632
1840	0.8556
1849	0.8501
1858	0.8501
1867	0.8523
1876	0.8586
1885	0.8655
1894	0.8697
1903	0.8689
1912	0.8632
1921	0.8599
1930	0.858
1939	0.8606
1948	0.8669
1957	0.8726
1966	0.8744
1975	0.8737
1984	0.873
1993	0.8747
2002	0.8763
2011	0.877
2020	0.8772
2029	0.877
2038	0.877
2047	0.8779
2056	0.879
2065	0.8799
2074	0.8806
2083	0.8813
2092	0.8812
2101	0.8801
2110	0.8791
2119	0.878
2128	0.877
2137	0.8759
2146	0.875
2155	0.876
2164	0.8779
2173	0.8776
2182	0.8759
2191	0.8739
2200	0.8727
2209	0.8729
2218	0.875
2227	0.877
2236	0.8769
2245	0.8765
2254	0.8756
2263	0.8747
2272	0.8736
2281	0.8725
2290	0.8721
2299	0.8721
2308	0.8724
2317	0.8729
2326	0.8743
2335	0.8762
2344	0.8786
2353	0.8797
2362	0.8796
2371	0.8799
2380	0.881
2389	0.8794
2398	0.877
2407	0.8748
2416	0.8741
2425	0.8773
2434	0.8804
2443	0.8793
2452	0.8781
2461	0.877
2470	0.875
2479	0.8733
2488	0.8719
2497	0.8704
2506	0.8693
2515	0.8701
2524	0.8734
2533	0.8781
2542	0.8748
2551	0.861
2560	0.8468
2569	0.8465
2578	0.8537
2587	0.871
2596	0.8788
2605	0.8802
2614	0.8797
2623	0.8789
2632	0.8776
2641	0.8758
2650	0.8734
2659	0.8715
2668	0.8715
2677	0.8724
2686	0.8744
2695	0.8764
2704	0.8787
2713	0.8784
2722	0.8768
2731	0.8749
2740	0.8733
2749	0.8719
2758	0.8714
2767	0.8704
2776	0.869
2785	0.8669
2794	0.865
2803	0.8625
2812	0.8597
2821	0.8569
2830	0.8542
2839	0.8509
2848	0.8462
2857	0.8345
2866	0.8106
2875	0.7817
2884	0.7553
2893	0.7316
2902	0.7092
2911	0.6784
2920	0.609
2929	0.5568
2938	0.5382
2947	0.5761
2956	0.5981
2965	0.5992
2974	0.5695
2983	0.439
2992	0.3794
3001	0.2963
3010	0.4098
3019	0.6088
3028	0.7607
3037	0.8233
3046	0.8473
3055	0.8531
3064	0.8555
3073	0.857
3082	0.8576
3091	0.8578
3100	0.8573
3109	0.8596
3118	0.865
3127	0.8675
3136	0.8683
3145	0.8687
3154	0.869
3163	0.8693
3172	0.8699
3181	0.8704
3190	0.871
3199	0.8718
3208	0.8725
3217	0.8731
3226	0.8738
3235	0.8745
3244	0.8754
3253	0.8779
3262	0.8781
3271	0.875
3280	0.863
3289	0.8479
3298	0.8476
3307	0.8571
3316	0.8735
3325	0.8785
3334	0.8801
3343	0.8811
3352	0.8823
3361	0.8833
3370	0.8839
3379	0.8841
3388	0.8838
3397	0.8835
3406	0.883
3415	0.8824
3424	0.882
3433	0.8814
3442	0.881
3451	0.8806
3460	0.8802
3469	0.8802
3478	0.8803
3487	0.8804
3496	0.8804
3505	0.8804
3514	0.8803
3523	0.8797
3532	0.8792
3541	0.8786
3550	0.878
3559	0.8781
3568	0.8787
3577	0.8785
3586	0.8765
3595	0.8739
3604	0.8721
3613	0.8726
3622	0.8733
3631	0.8739
3640	0.8747
3649	0.8752
3658	0.8745
3667	0.8729
3676	0.8731
3685	0.8746
3694	0.8761
3703	0.8766
3712	0.8756
3721	0.8733
3730	0.8704
3739	0.8749
3748	0.878
3757	0.8793
3766	0.8793
3775	0.8757
3784	0.8727
3793	0.8799
