Infrared Spectrum: ETHYL NITRATE
Formula: C2 H5 N O3
CAS: 625-58-1
State: GAS (30 mmHg DILUTED TO A TOTAL PRESSURE OF 600 mmHg WITH N2)
Class: COBLENTZ
Instrument: DOW KBr FOREPRISM
Instrument parameters: GRATING BLAZED AT 3.5, 12.0, 20.0 MICRONS AND CHANGED AT 5.0, 7.5, 14.9 MICRONS
Sampling: TRANSMISSION
Path length: 5 CM
Resolution: 4
Origin: DOW CHEMICAL COMPANY
1/CM	TRANSMITTANCE
456.012	0.958
464.81	0.964
473.607	0.966
482.405	0.968
491.203	0.966
500	0.965
508.798	0.968
517.596	0.964
526.393	0.964
535.191	0.962
543.989	0.958
552.786	0.943
561.584	0.922
570.382	0.921
579.179	0.937
587.977	0.958
596.775	0.972
605.572	0.975
614.37	0.961
623.167	0.925
631.965	0.79
640.763	0.648
649.56	0.646
658.358	0.802
667.156	0.889
675.953	0.884
684.751	0.838
693.549	0.714
702.346	0.678
711.144	0.71
719.942	0.94
728.739	0.965
737.537	0.955
746.335	0.908
755.132	0.838
763.93	0.71
772.728	0.779
781.525	0.831
790.323	0.908
799.121	0.921
807.918	0.924
816.716	0.9
825.514	0.833
834.311	0.566
843.109	0.082
851.907	0.017
860.704	0.016
869.502	0.0591
878.3	0.415
887.097	0.662
895.895	0.544
904.693	0.408
913.49	0.249
922.288	0.386
931.085	0.663
939.883	0.798
948.681	0.855
957.478	0.939
966.276	0.957
975.074	0.944
983.871	0.915
992.669	0.875
1001.47	0.769
1010.26	0.54
1019.06	0.177
1027.86	0.118
1036.66	0.162
1045.46	0.571
1054.25	0.842
1063.05	0.862
1071.85	0.863
1080.65	0.824
1089.44	0.798
1098.24	0.817
1107.04	0.841
1115.84	0.795
1124.63	0.815
1133.43	0.831
1142.23	0.915
1151.03	0.906
1159.82	0.908
1168.62	0.914
1177.42	0.937
1186.22	0.94
1195.02	0.933
1203.81	0.94
1212.61	0.947
1221.41	0.936
1230.21	0.935
1239	0.915
1247.8	0.9
1256.6	0.831
1265.4	0.653
1274.19	0.1609
1282.99	0.006
1291.79	0.008
1300.59	0.113
1309.38	0.6371
1318.18	0.859
1326.98	0.924
1335.78	0.935
1344.58	0.932
1353.37	0.899
1362.17	0.786
1370.97	0.707
1379.77	0.655
1388.56	0.733
1397.36	0.753
1406.16	0.805
1414.96	0.846
1423.75	0.857
1432.55	0.841
1441.35	0.769
1450.15	0.638
1458.94	0.605
1467.74	0.659
1476.54	0.707
1485.34	0.765
1494.14	0.819
1502.93	0.891
1511.73	0.915
1520.53	0.911
1529.33	0.915
1538.12	0.918
1546.92	0.914
1555.72	0.904
1564.52	0.908
1573.31	0.914
1582.11	0.924
1590.91	0.935
1599.71	0.926
1608.51	0.886
1617.3	0.78
1626.1	0.565
1634.9	0.2328
1643.7	0.013
1652.49	0
1661.29	0
1670.09	0
1678.89	0.042
1687.68	0.4051
1696.48	0.823
1705.28	0.895
1714.08	0.914
1722.87	0.917
1731.67	0.902
1740.47	0.882
1749.27	0.875
1758.07	0.899
1766.86	0.925
1775.66	0.944
1784.46	0.96
1793.26	0.968
1802.05	0.975
1810.85	0.98
1819.65	0.979
1828.45	0.973
1837.24	0.966
1846.04	0.96
1854.84	0.957
1863.64	0.96
1872.43	0.968
1881.23	0.972
1890.03	0.973
1898.83	0.979
1907.63	0.976
1916.42	0.968
1925.22	0.966
1934.02	0.966
1942.82	0.977
1951.61	0.983
1960.41	0.983
1969.21	0.984
1978.01	0.984
1986.8	0.984
1995.6	0.984
2004.4	0.988
2013.2	0.986
2021.99	0.9865
2030.79	0.987
2039.59	0.985
2048.39	0.983
2057.19	0.984
2065.98	0.986
2074.78	0.987
2083.58	0.9865
2092.38	0.989
2101.17	0.99
2109.97	0.989
2118.77	0.99
2127.57	0.988
2136.36	0.987
2145.16	0.984
2153.96	0.986
2162.76	0.988
2171.56	0.9891
2180.35	0.9865
2189.15	0.9851
2197.95	0.98
2206.75	0.982
2215.54	0.987
2224.34	0.99
2233.14	0.9891
2241.94	0.988
2250.73	0.987
2259.53	0.987
2268.33	0.9866
2277.13	0.984
2285.92	0.982
2294.72	0.982
2303.52	0.9824
2312.32	0.9834
2321.12	0.984
2329.91	0.987
2338.71	0.9889
2347.51	0.991
2356.31	0.9921
2365.1	0.987
2373.9	0.99
2382.7	0.9922
2391.5	0.9892
2400.29	0.987
2409.09	0.9826
2417.89	0.983
2426.69	0.986
2435.48	0.991
2444.28	0.993
2453.08	0.991
2461.88	0.991
2470.68	0.9892
2479.47	0.987
2488.27	0.98
2497.07	0.982
2505.87	0.9782
2514.66	0.9778
2523.46	0.9794
2532.26	0.986
2541.06	0.986
2549.85	0.9812
2558.65	0.9625
2567.45	0.9504
2576.25	0.9557
2585.04	0.9801
2593.84	0.9887
2602.64	0.991
2611.44	0.991
2620.24	0.991
2629.03	0.988
2637.83	0.987
2646.63	0.9836
2655.43	0.9796
2664.22	0.982
2673.02	0.9813
2681.82	0.98
2690.62	0.98
2699.41	0.9823
2708.21	0.987
2717.01	0.9877
2725.81	0.984
2734.61	0.982
2743.4	0.98
2752.2	0.98
2761	0.9783
2769.8	0.979
2778.59	0.9783
2787.39	0.976
2796.19	0.975
2804.99	0.972
2813.78	0.9687
2822.58	0.9657
2831.38	0.964
2840.18	0.961
2848.97	0.958
2857.77	0.9537
2866.57	0.9368
2875.37	0.9064
2884.17	0.8608
2892.96	0.8331
2901.76	0.8218
2910.56	0.7982
2919.36	0.7394
2928.15	0.6555
2936.95	0.6176
2945.75	0.6214
2954.55	0.6646
2963.34	0.6752
2972.14	0.6738
2980.94	0.6295
2989.74	0.5148
2998.53	0.4291
3007.33	0.3567
3016.13	0.5137
3024.93	0.6779
3033.73	0.8483
3042.52	0.9313
3051.32	0.9556
3060.12	0.9603
3068.92	0.964
3077.71	0.965
3086.51	0.966
3095.31	0.968
3104.11	0.968
3112.9	0.9695
3121.7	0.973
3130.5	0.9753
3139.3	0.977
3148.1	0.979
3156.89	0.979
3165.69	0.979
3174.49	0.979
3183.29	0.979
3192.08	0.9792
3200.88	0.982
3209.68	0.983
3218.48	0.983
3227.27	0.982
3236.07	0.9822
3244.87	0.984
3253.67	0.987
3262.46	0.988
3271.26	0.9872
3280.06	0.983
3288.86	0.9696
3297.66	0.955
3306.45	0.9605
3315.25	0.9774
3324.05	0.991
3332.85	0.9926
3341.64	0.991
3350.44	0.991
3359.24	0.991
3368.04	0.991
3376.83	0.99
3385.63	0.99
3394.43	0.9902
3403.23	0.991
3412.02	0.991
3420.82	0.9924
3429.62	0.9914
3438.42	0.9896
3447.22	0.9902
3456.01	0.9884
3464.81	0.991
3473.61	0.99
3482.41	0.991
3491.2	0.99
3500	0.9906
3508.8	0.9926
3517.6	0.99
3526.39	0.991
3535.19	0.991
3543.99	0.991
3552.79	0.988
3561.58	0.9872
3570.38	0.99
3579.18	0.991
3587.98	0.988
3596.78	0.986
3605.57	0.9838
3614.37	0.9838
3623.17	0.983
3631.97	0.9828
3640.76	0.982
3649.56	0.9862
3658.36	0.9857
3667.16	0.9829
3675.95	0.982
3684.75	0.984
3693.55	0.987
3702.35	0.9901
3711.15	0.9897
3719.94	0.9869
3728.74	0.9839
3737.54	0.9831
3746.34	0.99
3755.13	0.9901
3763.93	0.994
3772.73	0.993
3781.53	0.988
3790.32	0.987
3799.12	0.9901
