Infrared Spectrum: ETHYL NITRATE
Formula: C2 H5 N O3
CAS: 625-58-1
State: SOLUTION (10% IN CCl4 FOR 3800-1340, 10% IN CS2 FOR 1340-450 CM^-^1) VS. SOLVENT
Class: COBLENTZ III
Instrument: DOW KBr FOREPRISM-GRATING
Instrument parameters: BLAZED AT 3.5, 12.0, 20.0 MICRONS AND CHANGED AT 5.0, 7.5, 14.9 MICRONS
Sampling: TRANSMISSION
Path length: 0.011 CM, 0.011 CM
Resolution: 2
Origin: DOW CHEMICAL COMPANY
1/CM	TRANSMITTANCE
452.45	0.933
461.096	0.943
469.741	0.951
478.387	0.959
487.032	0.973
495.678	0.975
504.323	0.977
512.969	0.978
521.614	0.981
530.26	0.985
538.905	0.987
547.551	0.989
556.196	0.978
564.842	0.867
573.487	0.908
582.133	0.989
590.778	1.012
599.424	1.013
608.069	1.006
616.715	0.989
625.361	0.96
634.006	0.874
642.652	0.556
651.297	0.491
659.943	0.76
668.588	0.859
677.234	0.857
685.879	0.812
694.525	0.591
703.17	0.388
711.816	0.851
720.461	0.929
729.107	0.94
737.752	0.927
746.398	0.854
755.043	0.361
763.689	0.607
772.335	0.838
780.98	0.865
789.626	0.853
798.271	0.803
806.917	0.765
815.562	0.741
824.208	0.657
832.853	0.409
841.499	0.063
850.144	0
858.79	0
867.435	0.106
876.081	0.326
884.726	0.388
893.372	0.215
902.017	0.067
910.663	0.119
919.308	0.4901
927.954	0.698
936.6	0.756
945.245	0.819
953.891	0.877
962.536	0.888
971.182	0.855
979.827	0.784
988.473	0.654
997.118	0.404
1005.76	0.092
1014.41	0.03
1023.05	0.332
1031.7	0.685
1040.35	0.796
1048.99	0.827
1057.64	0.84
1066.28	0.838
1074.93	0.796
1083.57	0.672
1092.22	0.77
1100.86	0.823
1109.51	0.711
1118.16	0.603
1126.8	0.827
1135.45	0.849
1144.09	0.815
1152.74	0.76
1161.38	0.804
1170.03	0.894
1178.67	0.907
1187.32	0.923
1195.97	0.917
1204.61	0.911
1213.26	0.889
1221.9	0.854
1230.55	0.78
1239.19	0.71
1247.84	0.665
1256.48	0.54
1265.13	0.28
1273.78	0.012
1282.42	0.002
1291.07	0.119
1299.71	0.46
1308.36	0.676
1317	0.764
1325.65	0.809
1334.29	0.827
1342.94	0.828
1351.58	0.816
1360.23	0.648
1368.88	0.168
1377.52	0.687
1386.17	0.458
1394.81	0.725
1403.46	0.774
1412.1	0.78
1420.75	0.742
1429.39	0.725
1438.04	0.588
1446.69	0.289
1455.33	0.407
1463.98	0.495
1472.62	0.633
1481.27	0.45
1489.91	0.719
1498.56	0.707
1507.2	0.68
1515.85	0.63
1524.5	0.602
1533.14	0.564
1541.79	0.462
1550.43	0.417
1559.08	0.446
1567.72	0.497
1576.37	0.504
1585.01	0.47
1593.66	0.408
1602.31	0.335
1610.95	0.179
1619.6	0.014
1628.24	0
1636.89	0
1645.53	0
1654.18	0.082
1662.82	0.256
1671.47	0.479
1680.11	0.628
1688.76	0.695
1697.41	0.75
1706.05	0.785
1714.7	0.807
1723.34	0.823
1731.99	0.838
1740.63	0.84
1749.28	0.854
1757.92	0.869
1766.57	0.885
1775.22	0.896
1783.86	0.915
1792.51	0.919
1801.15	0.924
1809.8	0.925
1818.44	0.932
1827.09	0.931
1835.73	0.92
1844.38	0.881
1853.03	0.912
1861.67	0.92
1870.32	0.924
1878.96	0.931
1887.61	0.936
1896.25	0.936
1904.9	0.935
1913.54	0.933
1922.19	0.929
1930.84	0.931
1939.48	0.938
1948.13	0.943
1956.77	0.944
1965.42	0.943
1974.06	0.936
1982.71	0.938
1991.35	0.936
2000	0.936
2008.64	0.936
2017.29	0.936
2025.94	0.935
2034.58	0.9335
2043.23	0.9383
2051.87	0.943
2060.52	0.944
2069.16	0.946
2077.81	0.946
2086.45	0.948
2095.1	0.95
2103.75	0.95
2112.39	0.95
2121.04	0.95
2129.68	0.948
2138.33	0.947
2146.97	0.946
2155.62	0.947
2164.26	0.95
2172.91	0.95
2181.56	0.9454
2190.2	0.9384
2198.85	0.94
2207.49	0.949
2216.14	0.952
2224.78	0.952
2233.43	0.951
2242.07	0.948
2250.72	0.946
2259.37	0.9421
2268.01	0.938
2276.66	0.931
2285.3	0.923
2293.95	0.9253
2302.59	0.9312
2311.24	0.936
2319.88	0.94
2328.53	0.943
2337.17	0.9449
2345.82	0.9505
2354.47	0.955
2363.11	0.956
2371.76	0.956
2380.4	0.9517
2389.05	0.9472
2397.69	0.9469
2406.34	0.95
2414.98	0.958
2423.63	0.96
2432.28	0.96
2440.92	0.9598
2449.57	0.959
2458.21	0.9587
2466.86	0.956
2475.5	0.9491
2484.15	0.9355
2492.79	0.9412
2501.44	0.9533
2510.09	0.955
2518.73	0.955
2527.38	0.955
2536.02	0.956
2544.67	0.9361
2553.31	0.8731
2561.96	0.9354
2570.6	0.9565
2579.25	0.962
2587.9	0.9614
2596.54	0.9593
2605.19	0.963
2613.83	0.963
2622.48	0.962
2631.12	0.9548
2639.77	0.9427
2648.41	0.9429
2657.06	0.9588
2665.7	0.964
2674.35	0.967
2683	0.969
2691.64	0.969
2700.29	0.9669
2708.93	0.9638
2717.58	0.962
2726.22	0.9587
2734.87	0.956
2743.51	0.954
2752.16	0.952
2760.81	0.951
2769.45	0.9556
2778.1	0.956
2786.74	0.954
2795.39	0.9502
2804.03	0.946
2812.68	0.9391
2821.32	0.933
2829.97	0.9309
2838.62	0.9168
2847.26	0.9168
2855.91	0.9006
2864.55	0.86
2873.2	0.752
2881.84	0.778
2890.49	0.6822
2899.13	0.5438
2907.78	0.5256
2916.43	0.7236
2925.07	0.7668
2933.72	0.6766
2942.36	0.634
2951.01	0.738
2959.65	0.6481
2968.3	0.5972
2976.94	0.5268
2985.59	0.3481
2994.23	0.3207
3002.88	0.3932
3011.53	0.6498
3020.17	0.8215
3028.82	0.885
3037.46	0.9138
3046.11	0.9305
3054.75	0.9374
3063.4	0.942
3072.04	0.947
3080.69	0.951
3089.34	0.952
3097.98	0.952
3106.63	0.952
3115.27	0.9523
3123.92	0.956
3132.56	0.958
3141.21	0.9606
3149.85	0.966
3158.5	0.969
3167.15	0.969
3175.79	0.969
3184.44	0.969
3193.08	0.969
3201.73	0.969
3210.37	0.969
3219.02	0.966
3227.66	0.9621
3236.31	0.954
3244.96	0.943
3253.6	0.9443
3262.25	0.9582
3270.89	0.9708
3279.54	0.9783
3288.18	0.981
3296.83	0.981
3305.47	0.982
3314.12	0.982
3322.77	0.982
3331.41	0.982
3340.06	0.982
3348.7	0.982
3357.35	0.982
3365.99	0.983
3374.64	0.983
3383.28	0.983
3391.93	0.9861
3400.57	0.9886
3409.22	0.985
3417.87	0.9857
3426.51	0.9838
3435.16	0.981
3443.8	0.981
3452.45	0.981
3461.09	0.981
3469.74	0.981
3478.38	0.9828
3487.03	0.983
3495.68	0.983
3504.32	0.983
3512.97	0.983
3521.61	0.983
3530.26	0.985
3538.9	0.985
3547.55	0.985
3556.19	0.985
3564.84	0.985
3573.49	0.983
3582.13	0.9825
3590.78	0.982
3599.42	0.9827
3608.07	0.985
3616.71	0.985
3625.36	0.986
3634	0.986
3642.65	0.986
3651.3	0.986
3659.94	0.989
3668.59	1.0008
3677.23	0.987
3685.88	0.9824
3694.52	0.9854
3703.17	0.991
3711.81	0.9935
3720.46	0.995
3729.1	0.997
3737.75	1
3746.4	1
3755.04	0.997
3763.69	0.9941
3772.33	0.994
3780.98	0.994
3789.62	0.994
3798.27	0.994
