Infrared Spectrum: 2-Pyrrolidinone
Formula: C 4 H 7 N O
CAS: 616-45-5
State: gas
Origin: Sadtler Research Labs Under US-EPA Contract
1/CM	ABSORBANCE
450	0.132454
462	0.15863
474	0.142181
486	0.0791006
498	0.0522092
510	0.0161634
522	0.0243166
534	0.0351876
546	0.062222
558	0.0650827
570	0.0482041
582	0.0542118
594	0.0526384
606	0.0610777
618	0.0599333
630	0.0759537
642	0.0337572
654	0.025747
666	0.00886842
678	0.0210267
690	0.0191672
702	0.0167356
714	0.0200255
726	0.00643675
738	0.0158773
750	0.00572156
762	0.00657979
774	0.00629372
786	0.0120153
798	0.0120153
810	0.018166
822	0.0167356
834	0.0128735
846	0.0174508
858	0.0327559
870	0.0424826
882	0.0479181
894	0.0386205
906	0.0316116
918	0.0349015
930	0.0274635
942	0.0137317
954	0.0113001
966	0.0160204
978	0.0350446
990	0.0373332
1002	0.04048
1014	0.0253179
1026	0.0214558
1038	0.0244597
1050	0.0443421
1062	0.0603625
1074	0.0653688
1086	0.0347585
1098	0.0161634
1110	0.0170216
1122	0.0115862
1134	0.0120153
1146	0.0125874
1158	0.0207407
1170	0.0250318
1182	0.0286078
1194	0.0376193
1206	0.0606485
1218	0.111856
1230	0.211126
1242	0.276208
1254	0.282788
1266	0.17837
1278	0.119438
1290	0.10685
1302	0.0868247
1314	0.058646
1326	0.0457725
1338	0.0356167
1350	0.0340433
1362	0.0238875
1374	0.0190242
1386	0.0383345
1398	0.0919741
1410	0.132311
1422	0.143754
1434	0.0795297
1446	0.043913
1458	0.0336142
1470	0.036761
1482	0.0310395
1494	0.0208837
1506	0.0131596
1518	0.0144469
1530	0.0084393
1542	0.00457725
1554	0.0084393
1566	0.00786714
1578	0.011157
1590	0.00801018
1602	0.0164495
1614	0.0193103
1626	0.0134457
1638	0.0167356
1650	0.0214558
1662	0.0163064
1674	0.0361889
1686	0.047775
1698	0.0753816
1710	0.119008
1722	0.211555
1734	0.470598
1746	1.09639
1758	1.43039
1770	1.19209
1782	0.379626
1794	0.0985539
1806	0.0516371
1818	0.0310395
1830	0.0223141
1842	0.0121583
1854	0.0150191
1866	0.0154482
1878	0.0143039
1890	0.0125874
1902	0.0117292
1914	0.00901146
1926	0.00958361
1938	0.00929753
1950	0.00829626
1962	0.00715195
1974	0.00829626
1986	0.00772411
1998	0.00572156
2010	0.00543548
2022	0.00500636
2034	0.00643675
2046	0.00557852
2058	0.00672283
2070	0.00686587
2082	0.00686587
2094	0.00729499
2106	0.00743803
2118	0.00729499
2130	0.00672283
2142	0.00543548
2154	0.00543548
2166	0.00486333
2178	0.00486333
2190	0.00472029
2202	0.00457725
2214	0.00457725
2226	0.00429117
2238	0.00457725
2250	0.00443421
2262	0.0051494
2274	0.00557852
2286	0.0051494
2298	0.00657979
2310	0.00686587
2322	0.00643675
2334	0.00357597
2346	0.0194533
2358	0.00429117
2370	0.00872538
2382	0.00643675
2394	0.00572156
2406	0.00529244
2418	0.00472029
2430	0.00557852
2442	0.00529244
2454	0.0051494
2466	0.00486333
2478	0.0051494
2490	0.00443421
2502	0.00414813
2514	0.00357597
2526	0.0032899
2538	0.00300382
2550	0.00271774
2562	0.00286078
2574	0.0032899
2586	0.00314686
2598	0.00414813
2610	0.00457725
2622	0.00529244
2634	0.00529244
2646	0.0051494
2658	0.00486333
2670	0.00500636
2682	0.00529244
2694	0.0058646
2706	0.00700891
2718	0.00829626
2730	0.00929753
2742	0.0102988
2754	0.0102988
2766	0.00901146
2778	0.0084393
2790	0.011157
2802	0.0161634
2814	0.0215989
2826	0.0236014
2838	0.0240306
2850	0.0316116
2862	0.0683726
2874	0.130022
2886	0.168786
2898	0.153195
2910	0.107708
2922	0.095407
2934	0.11157
2946	0.131882
2958	0.159488
2970	0.159918
2982	0.164638
2994	0.149333
3006	0.0941197
3018	0.0522092
3030	0.0224571
3042	0.0131596
3054	0.00986969
3066	0.00872538
3078	0.00815322
3090	0.00801018
3102	0.00743803
3114	0.00729499
3126	0.00729499
3138	0.00772411
3150	0.00772411
3162	0.00858234
3174	0.00901146
3186	0.00758107
3198	0.00643675
3210	0.00715195
3222	0.00858234
3234	0.0101558
3246	0.00986969
3258	0.00901146
3270	0.00858234
3282	0.00872538
3294	0.0084393
3306	0.00815322
3318	0.00729499
3330	0.00858234
3342	0.0091545
3354	0.00986969
3366	0.0102988
3378	0.0084393
3390	0.00815322
3402	0.00872538
3414	0.00929753
3426	0.0107279
3438	0.0160204
3450	0.0357597
3462	0.0773841
3474	0.109568
3486	0.101987
3498	0.0642245
3510	0.0250318
3522	0.0128735
3534	0.00872538
3546	0.0105849
3558	0.00700891
3570	0.0128735
3582	0.00758107
3594	0.0125874
3606	0.00986969
3618	0.00872538
3630	0.0174508
3642	0.0058646
3654	0.0226002
3666	0.0123014
3678	0.00629372
3690	0.0187381
3702	0.0123014
3714	0.0161634
3726	0.00557852
3738	0.00557852
3750	0.0347585
3762	0.00872538
3774	0.0118722
3786	0.014733
3798	0.0231723
3810	0.00815322
3822	0.0194533
3834	0.0165925
3846	0.0168786
3858	0.0163064
3870	0.0138748
3882	0.0168786
3894	0.0117292
3906	0.0197394
3918	0.0205976
3930	0.0127305
3942	0.00929753
3954	0.018452
3966	0.018452
