Infrared Spectrum: 1,4-Pentadien-3-ol
Formula: C 5 H 8 O
CAS: 922-65-6
State: gas
Origin: Sadtler Research Labs Under US-EPA Contract
1/CM	ABSORBANCE
450	0.130885
462	0.0424002
474	0.0287871
486	0.02835
498	0.0413386
510	0.0322216
522	0.0383412
534	0.035219
546	0.0395901
558	0.047708
570	0.0631319
582	0.0746218
594	0.0622577
606	0.0450228
618	0.0345321
630	0.0387783
642	0.0460844
654	0.0586359
666	0.0582612
678	0.0537027
690	0.0601345
702	0.0567001
714	0.0353439
726	0.017547
738	0.0081803
750	0.00337203
762	0.00218557
774	0.00106156
786	0.000187335
798	0.00143624
810	0.00368425
822	0.00880475
834	0.0237915
846	0.0428373
858	0.0647555
870	0.0833016
882	0.0824274
894	0.0967273
906	0.205944
918	0.485385
930	0.62445
942	0.471085
954	0.297113
966	0.336828
978	0.519605
990	0.578615
1002	0.569186
1014	0.476518
1026	0.412886
1038	0.315909
1050	0.196452
1062	0.151804
1074	0.146496
1086	0.155051
1098	0.17622
1110	0.221368
1122	0.249031
1134	0.215685
1146	0.132321
1158	0.095416
1170	0.0821776
1182	0.0712497
1194	0.0810536
1206	0.13076
1218	0.18209
1230	0.201572
1242	0.165292
1254	0.134069
1266	0.121705
1278	0.127138
1290	0.134194
1302	0.138003
1314	0.134319
1326	0.128949
1338	0.124515
1350	0.119208
1362	0.109279
1374	0.0936051
1386	0.0824898
1398	0.109591
1410	0.181465
1422	0.21812
1434	0.156425
1446	0.0681275
1458	0.0325963
1470	0.0209191
1482	0.0155488
1494	0.0146746
1506	0.0133632
1518	0.0111777
1530	0.00693139
1542	0.00799296
1554	0.00899208
1566	0.00899208
1578	0.0133632
1590	0.0125514
1602	0.015299
1614	0.0264767
1626	0.0475206
1638	0.0723738
1650	0.0670659
1662	0.0339076
1674	0.0154239
1686	0.0151741
1698	0.0137379
1710	0.0111777
1722	0.0121768
1734	0.0141126
1746	0.0156737
1758	0.0145497
1770	0.00824274
1782	0.00793052
1794	0.00724362
1806	0.00605717
1818	0.00668162
1830	0.0133008
1842	0.0386535
1854	0.0594476
1866	0.053328
1878	0.023854
1890	0.0099912
1902	0.00755585
1914	0.00755585
1926	0.0081803
1938	0.00830518
1950	0.00986631
1962	0.0124266
1974	0.0129886
1986	0.0111777
1998	0.00824274
2010	0.00580738
2022	0.00399648
2034	0.00318469
2046	0.00362181
2058	0.00106156
2070	0.00106156
2082	0.00430871
2094	0.00518294
2106	0.00518294
2118	0.0044336
2130	0.00412137
2142	0.00462093
2154	0.00424626
2166	0.00418382
2178	0.00393403
2190	0.00368425
2202	0.00324714
2214	0.00362181
2226	0.00330959
2238	0.00368425
2250	0.00355937
2262	0.00387159
2274	0.00393403
2286	0.00493315
2298	0.00636939
2310	0.00849252
2322	0.00899208
2334	0.00636939
2346	0.0044336
2358	0.00724362
2370	0.000187335
2382	0.00131135
2394	0.00312225
2406	0.00349692
2418	0.00393403
2430	0.00349692
2442	0.00362181
2454	0.00212313
2466	0.00156113
2478	0.00187335
2490	0.00187335
2502	0.00212313
2514	0.00218557
2526	0.00268513
2538	0.00212313
2550	0.00274758
2562	0.00312225
2574	0.00268513
2586	0.00206069
2598	0.00181091
2610	0.00268513
2622	0.00437115
2634	0.00493315
2646	0.00368425
2658	0.00543272
2670	0.0056825
2682	0.00181091
2694	0.00074934
2706	0.00118646
2718	0.00168602
2730	0.00149868
2742	0.00156113
2754	0.00212313
2766	0.00262269
2778	0.0012489
2790	0.00137379
2802	0.00330959
2814	0.0108654
2826	0.0262893
2838	0.0551389
2850	0.0900457
2862	0.123329
2874	0.132446
2886	0.119145
2898	0.0914195
2910	0.0655673
2922	0.0502682
2934	0.0422753
2946	0.0364054
2958	0.0392155
2970	0.0648179
2982	0.122455
2994	0.163918
3006	0.155176
3018	0.139377
3030	0.115336
3042	0.0773694
3054	0.0569498
3066	0.0824274
3078	0.15349
3090	0.240538
3102	0.187585
3114	0.0946042
3126	0.0228549
3138	0.00936675
3150	0.00661917
3162	0.00512049
3174	0.00505805
3186	0.00424626
3198	0.00243536
3210	0.00224802
3222	0.00162357
3234	0.00074934
3246	0.00131135
3258	0.00143624
3270	0.00149868
3282	0.00418382
3294	0.00462093
3306	0.00580738
3318	0.00861741
3330	0.0080554
3342	0.00611961
3354	0.00312225
3366	0.00362181
3378	0.00555761
3390	0.00811785
3402	0.00843008
3414	0.0081803
3426	0.00543272
3438	0.00524538
3450	0.00387159
3462	0.00574494
3474	0.00518294
3486	0.00299736
3498	0.00368425
3510	0.00480826
3522	0.0037467
3534	0.00349692
3546	0.00512049
3558	0.00393403
3570	0.00705629
3582	0.0074934
3594	0.00892964
3606	0.0160484
3618	0.0311601
3630	0.0839885
3642	0.138253
3654	0.137004
3666	0.0828021
3678	0.0282876
3690	0.010803
3702	0.00299736
3714	0.00380915
3726	0.0037467
3738	0
3750	0.000187335
3762	0.000187335
3774	0.000187335
3786	0.000187335
3798	0.00037467
3810	0.000187335
3822	0.000187335
3834	0.000187335
3846	0.00143624
3858	0.000187335
3870	0.000187335
3882	0.000187335
3894	0.000187335
3906	0.000187335
3918	0.000686895
3930	0.000312225
3942	0.00062445
3954	0.000811785
3966	0.000187335
