Infrared Spectrum: 1,4-BUTANEDINITRILE
Formula: C4 H4 N2
CAS: 110-61-2
State: LIQUID (NEAT)
Class: COBLENTZ III
Instrument: DOW KBr FOREPRISM-GRATING
Instrument parameters: BLAZED AT 3.5, 12.0, 20.0 MICRON, CHANGED AT 5.0, 7.5, 14.9 MICRON
Sampling: TRANSMISSION
Path length: SMEAR, KBr CRYSTALS
Resolution: 4
Origin: DOW CHEMICAL COMPANY
1/CM	TRANSMITTANCE
455.707	0.901
464.225	0.87
472.743	0.79
481.261	0.625
489.779	0.743
498.296	0.925
506.814	0.934
515.332	0.929
523.85	0.932
532.368	0.918
540.886	0.946
549.404	0.949
557.922	0.952
566.44	0.95
574.957	0.94
583.475	0.934
591.993	0.901
600.511	0.673
609.029	0.529
617.547	0.878
626.065	0.916
634.583	0.944
643.101	0.966
651.618	0.98
660.136	0.986
668.654	0.99
677.172	0.993
685.69	0.993
694.208	0.988
702.726	0.969
711.244	0.91
719.762	0.881
728.279	0.918
736.797	0.894
745.315	0.825
753.833	0.816
762.351	0.645
770.869	0.78
779.387	0.858
787.905	0.912
796.423	0.917
804.941	0.869
813.458	0.681
821.976	0.625
830.494	0.87
839.012	0.937
847.53	0.97
856.048	0.986
864.566	0.99
873.084	0.99
881.602	0.989
890.119	0.988
898.637	0.981
907.155	0.941
915.673	0.762
924.191	0.878
932.709	0.957
941.227	0.942
949.745	0.892
958.263	0.6109
966.78	0.4901
975.298	0.882
983.816	0.912
992.334	0.85
1000.85	0.468
1009.37	0.669
1017.89	0.909
1026.41	0.905
1034.92	0.937
1043.44	0.956
1051.96	0.969
1060.48	0.974
1069	0.973
1077.51	0.972
1086.03	0.977
1094.55	0.985
1103.07	0.988
1111.58	0.986
1120.1	0.985
1128.62	0.988
1137.14	0.981
1145.66	0.978
1154.17	0.977
1162.69	0.969
1171.21	0.956
1179.73	0.93
1188.25	0.906
1196.76	0.766
1205.28	0.844
1213.8	0.88
1222.32	0.836
1230.84	0.671
1239.35	0.768
1247.87	0.892
1256.39	0.898
1264.91	0.872
1273.42	0.796
1281.94	0.89
1290.46	0.897
1298.98	0.892
1307.5	0.877
1316.01	0.821
1324.53	0.766
1333.05	0.635
1341.57	0.539
1350.09	0.808
1358.6	0.832
1367.12	0.837
1375.64	0.817
1384.16	0.743
1392.67	0.692
1401.19	0.632
1409.71	0.4829
1418.23	0.211
1426.75	0.131
1435.26	0.181
1443.78	0.363
1452.3	0.645
1460.82	0.782
1469.34	0.828
1477.85	0.861
1486.37	0.893
1494.89	0.908
1503.41	0.914
1511.93	0.934
1520.44	0.945
1528.96	0.953
1537.48	0.958
1546	0.958
1554.51	0.934
1563.03	0.937
1571.55	0.958
1580.07	0.96
1588.59	0.952
1597.1	0.96
1605.62	0.966
1614.14	0.968
1622.66	0.966
1631.18	0.974
1639.69	0.986
1648.21	0.988
1656.73	0.98
1665.25	0.977
1673.77	0.984
1682.28	0.986
1690.8	0.986
1699.32	0.988
1707.84	0.984
1716.35	0.98
1724.87	0.988
1733.39	0.99
1741.91	0.99
1750.43	0.99
1758.94	0.988
1767.46	0.982
1775.98	0.974
1784.5	0.972
1793.02	0.972
1801.53	0.976
1810.05	0.966
1818.57	0.96
1827.09	0.972
1835.61	0.978
1844.12	0.985
1852.64	0.984
1861.16	0.981
1869.68	0.988
1878.19	0.99
1886.71	0.99
1895.23	0.985
1903.75	0.984
1912.27	0.98
1920.78	0.965
1929.3	0.977
1937.82	0.985
1946.34	0.984
1954.86	0.98
1963.37	0.985
1971.89	0.988
1980.41	0.982
1988.93	0.98
1997.45	0.982
2005.96	0.978
2014.48	0.9735
2023	0.973
2031.52	0.973
2040.03	0.9631
2048.55	0.958
2057.07	0.9674
2065.59	0.9749
2074.11	0.98
2082.62	0.9829
2091.14	0.9855
2099.66	0.986
2108.18	0.986
2116.7	0.981
2125.21	0.977
2133.73	0.9711
2142.25	0.9646
2150.77	0.9591
2159.29	0.958
2167.8	0.961
2176.32	0.9547
2184.84	0.945
2193.36	0.9446
2201.87	0.9192
2210.39	0.9046
2218.91	0.9146
2227.43	0.854
2235.95	0.811
2244.46	0.6839
2252.98	0.1406
2261.5	0.2222
2270.02	0.5998
2278.54	0.6449
2287.05	0.6977
2295.57	0.805
2304.09	0.811
2312.61	0.9076
2321.12	0.9128
2329.64	0.9324
2338.16	0.9391
2346.68	0.9455
2355.2	0.9547
2363.71	0.956
2372.23	0.9509
2380.75	0.9275
2389.27	0.9191
2397.79	0.9301
2406.3	0.9333
2414.82	0.9149
2423.34	0.8651
2431.86	0.8802
2440.38	0.9007
2448.89	0.9123
2457.41	0.928
2465.93	0.9443
2474.45	0.95
2482.96	0.952
2491.48	0.9533
2500	0.954
2508.52	0.947
2517.04	0.936
2525.55	0.936
2534.07	0.936
2542.59	0.933
2551.11	0.9194
2559.63	0.9093
2568.14	0.9246
2576.66	0.9413
2585.18	0.945
2593.7	0.9417
2602.22	0.9242
2610.73	0.8994
2619.25	0.9123
2627.77	0.917
2636.29	0.9127
2644.8	0.9093
2653.32	0.908
2661.84	0.9093
2670.36	0.9214
2678.88	0.9411
2687.39	0.946
2695.91	0.946
2704.43	0.95
2712.95	0.949
2721.47	0.9432
2729.98	0.936
2738.5	0.936
2747.02	0.9328
2755.54	0.9248
2764.06	0.921
2772.57	0.924
2781.09	0.9275
2789.61	0.929
2798.13	0.929
2806.64	0.9218
2815.16	0.9138
2823.68	0.9031
2832.2	0.8905
2840.72	0.8751
2849.23	0.8602
2857.75	0.852
2866.27	0.85
2874.79	0.8448
2883.31	0.8356
2891.82	0.8234
2900.34	0.8052
2908.86	0.7802
2917.38	0.7455
2925.9	0.7402
2934.41	0.6435
2942.93	0.4747
2951.45	0.2843
2959.97	0.3924
2968.48	0.451
2977	0.2968
2985.52	0.1658
2994.04	0.2313
3002.56	0.4024
3011.07	0.5545
3019.59	0.6208
3028.11	0.6507
3036.63	0.6773
3045.15	0.6962
3053.66	0.6959
3062.18	0.6933
3070.7	0.7007
3079.22	0.7281
3087.74	0.7744
3096.25	0.8007
3104.77	0.832
3113.29	0.8465
3121.81	0.8585
3130.32	0.8664
3138.84	0.8721
3147.36	0.88
3155.88	0.8798
3164.4	0.8557
3172.91	0.8459
3181.43	0.8922
3189.95	0.901
3198.47	0.8923
3206.99	0.8525
3215.5	0.8295
3224.02	0.898
3232.54	0.9262
3241.06	0.9258
3249.58	0.9117
3258.09	0.9145
3266.61	0.922
3275.13	0.8979
3283.65	0.9247
3292.16	0.9501
3300.68	0.954
3309.2	0.9561
3317.72	0.9571
3326.24	0.9569
3334.75	0.958
3343.27	0.958
3351.79	0.9621
3360.31	0.9661
3368.83	0.969
3377.34	0.9701
3385.86	0.976
3394.38	0.977
3402.9	0.978
3411.41	0.977
3419.93	0.977
3428.45	0.978
3436.97	0.978
3445.49	0.978
3454	0.978
3462.52	0.98
3471.04	0.977
3479.56	0.978
3488.08	0.981
3496.59	0.982
3505.11	0.98
3513.63	0.978
3522.15	0.978
3530.67	0.978
3539.18	0.978
3547.7	0.977
3556.22	0.97
3564.74	0.9601
3573.25	0.954
3581.77	0.9639
3590.29	0.968
3598.81	0.974
3607.33	0.976
3615.84	0.977
3624.36	0.978
3632.88	0.984
3641.4	0.981
3649.92	0.9781
3658.43	0.9799
3666.95	0.973
3675.47	0.9799
3683.99	0.9819
3692.51	0.9899
3701.02	0.9901
3709.54	0.99
3718.06	0.9929
3726.58	0.994
3735.09	0.9893
3743.61	0.9761
3752.13	0.972
3760.65	0.973
3769.17	0.9702
3777.68	0.9651
3786.2	0.962
3794.72	0.9601
