Infrared Spectrum: Butane, 1-bromo-4-chloro-
Formula: C 4 H 8 Br Cl
CAS: 6940-78-9
State: gas
Origin: Sadtler Research Labs Under US-EPA Contract
1/CM	ABSORBANCE
450	0.01001
462	0.00606664
474	0.00629414
486	0.0135741
498	0.00970662
510	0.00583914
522	0.00447415
534	0.00743163
546	0.0181999
558	0.0652164
570	0.133542
582	0.0906204
594	0.0266174
606	0.0157733
618	0.0277549
630	0.0474715
642	0.125579
654	0.280658
666	0.323428
678	0.149164
690	0.0739372
702	0.0494431
714	0.0562681
726	0.113977
738	0.219992
750	0.295749
762	0.352472
774	0.358387
786	0.222342
798	0.10973
810	0.0859946
822	0.0723447
834	0.0544481
846	0.0459548
858	0.0508839
870	0.0480781
882	0.0496706
894	0.0428456
906	0.037689
918	0.0453481
930	0.0631689
942	0.0536898
954	0.0373098
966	0.0534623
978	0.100706
990	0.0879663
1002	0.081748
1014	0.0813688
1026	0.0645339
1038	0.0361723
1050	0.0288165
1062	0.0241907
1074	0.0176691
1086	0.0120574
1098	0.00978246
1110	0.0126641
1122	0.0177449
1134	0.0166074
1146	0.0167591
1158	0.0197924
1170	0.0257074
1182	0.0437556
1194	0.0520214
1206	0.0729513
1218	0.102754
1230	0.193602
1242	0.210892
1254	0.369155
1266	0.295749
1278	0.426257
1290	0.623044
1302	0.420342
1314	0.350955
1326	0.241604
1338	0.0947913
1350	0.079928
1362	0.0612731
1374	0.0457273
1386	0.0260107
1398	0.0211574
1410	0.0260107
1422	0.0651405
1434	0.180331
1446	0.363392
1458	0.290668
1470	0.132859
1482	0.0523248
1494	0.0203991
1506	0.0119816
1518	0.00940329
1530	0.0071283
1542	0.0066733
1554	0.00492915
1566	0.00394332
1578	0.00371582
1590	0.00166833
1602	0.00144083
1614	0.00280582
1626	0.00477748
1638	0.00530831
1650	0.00341249
1662	0.00257832
1674	0.00401915
1686	0.00386748
1698	0.00348832
1710	0.00212332
1722	0.00250249
1734	0.00310915
1746	0.00379165
1758	0.00288165
1770	0.00326082
1782	0.00235082
1794	0.00227499
1806	0.00242666
1818	0.00159249
1830	0.00136499
1842	0.00144083
1854	0.00121333
1866	0.00235082
1878	0.00219916
1890	0.00219916
1902	0.00272999
1914	0.00288165
1926	0.00356415
1938	0.00310915
1950	0.00318499
1962	0.00363998
1974	0.00409498
1986	0.00379165
1998	0.00363998
2010	0.00371582
2022	0.00401915
2034	0.00371582
2046	0.000530831
2058	0.000682497
2070	0.00121333
2082	0.00197166
2094	0.00470165
2106	0.00599081
2118	0.00591497
2130	0.00553581
2142	0.00470165
2154	0.00538414
2166	0.00538414
2178	0.00492915
2190	0.00462581
2202	0.00492915
2214	0.00591497
2226	0.00561164
2238	0.00553581
2250	0.00530831
2262	0.00530831
2274	0.00394332
2286	0.00348832
2298	0.00280582
2310	0.000985829
2322	0.0011375
2334	0.00272999
2346	0.00348832
2358	0.00136499
2370	0.0102375
2382	0.00773497
2394	0.00454998
2406	0.00363998
2418	0.00470165
2430	0.00500498
2442	0.00417082
2454	0.00424665
2466	0.00439831
2478	0.00424665
2490	0.00470165
2502	0.00439831
2514	0.00379165
2526	0.00288165
2538	0.00235082
2550	0.00212332
2562	0.00181999
2574	0.00159249
2586	0.00212332
2598	0.00250249
2610	0.00189583
2622	0.00250249
2634	0.00348832
2646	0.00439831
2658	0.00621831
2670	0.00856913
2682	0.00932746
2694	0.0116024
2706	0.0127399
2718	0.0101616
2730	0.0107683
2742	0.0110716
2754	0.0106166
2766	0.00993412
2778	0.00887246
2790	0.0116024
2802	0.0138774
2814	0.0175174
2826	0.0256316
2838	0.0557373
2850	0.121029
2862	0.165392
2874	0.179876
2886	0.201943
2898	0.20983
2910	0.251007
2922	0.280127
2934	0.314555
2946	0.458259
2958	0.64913
2970	0.75833
2982	0.567003
2994	0.386142
3006	0.337229
3018	0.197393
3030	0.081748
3042	0.0301815
3054	0.0160008
3066	0.0118299
3078	0.00864496
3090	0.00682497
3102	0.00523248
3114	0.00295749
3126	0.00363998
3138	0.00212332
3150	0.00219916
3162	0.00356415
3174	0.00417082
3186	0.00492915
3198	0.00439831
3210	0.00371582
3222	0.00348832
3234	0.00379165
3246	0.00485331
3258	0.00326082
3270	0.00295749
3282	0.00265416
3294	0.00204749
3306	0.00227499
3318	0.00257832
3330	0.00204749
3342	0.00227499
3354	0.000379165
3366	0.000985829
3378	0.00151666
3390	0.00075833
3402	0.00174416
3414	0.000682497
3426	0.00272999
3438	0.00159249
3450	0.00265416
3462	0.00151666
3474	0.00159249
3486	0.00174416
3498	0.00128916
3510	0.00303332
3522	0.00166833
3534	0.00174416
3546	0.00106166
3558	0.00318499
3570	0.00128916
3582	0.00166833
3594	0.00288165
3606	0.00075833
3618	0.00197166
3630	0.00333665
3642	0.00197166
3654	0.00470165
3666	0.00242666
3678	0.00394332
3690	0.00341249
3702	0.000303332
3714	0.00326082
3726	0.00174416
3738	0.00424665
3750	0.00106166
3762	0.00136499
3774	0.000151666
3786	0.00181999
3798	0.000303332
3810	0.000985829
3822	7.5833e-05
3834	7.5833e-05
3846	7.5833e-05
3858	0.00204749
3870	0.00227499
3882	0.00492915
3894	0.000682497
3906	0.00788663
3918	0.00219916
3930	0.00401915
3942	0.000834163
3954	0.000151666
3966	0.00705247
