Infrared Spectrum: Acetic acid, bromo-
Formula: C 2 H 3 Br O 2
CAS: 79-08-3
State: gas
Origin: Sadtler Research Labs Under US-EPA Contract
1/CM	ABSORBANCE
450	0.0137315
462	0.0170314
474	0.0264518
486	0.0372029
498	0.0457186
510	0.0384802
522	0.025547
534	0.0267179
546	0.0329983
558	0.0585985
570	0.0888292
582	0.11906
594	0.141041
606	0.159403
618	0.189155
630	0.18165
642	0.115228
654	0.0631225
666	0.04987
678	0.0320935
690	0.0223537
702	0.0211295
714	0.0240568
726	0.0205973
738	0.0127735
750	0.00824957
762	0.00968659
774	0.0104849
786	0.011922
798	0.0103253
810	0.00803667
822	0.00521585
834	0.00548197
846	0.00761089
858	0.0114429
870	0.0129864
882	0.0119752
894	0.0103785
906	0.00750444
918	0.00494974
930	0.00452396
942	0.00266115
954	0.00149024
966	0.00164991
978	0.000425784
990	0.00218214
1002	0.00282082
1014	0.00287404
1026	0.0060142
1038	0.0102188
1050	0.025068
1062	0.0578002
1074	0.119166
1086	0.238013
1098	0.324394
1110	0.285648
1122	0.15935
1134	0.114589
1146	0.0947369
1158	0.0947902
1170	0.108735
1182	0.130769
1194	0.137688
1206	0.138007
1218	0.123052
1230	0.0798345
1242	0.0540213
1254	0.0512005
1266	0.0433767
1278	0.0347014
1290	0.0312419
1302	0.039864
1314	0.0613129
1326	0.085689
1338	0.100166
1350	0.0991544
1362	0.0734477
1374	0.0395447
1386	0.0227794
1398	0.0194264
1410	0.0266115
1422	0.0431106
1434	0.0410349
1446	0.0221408
1458	0.0146895
1470	0.00723833
1482	0.00447073
1494	0.00489652
1506	0.00558842
1518	0.00287404
1530	0.00159669
1542	0.00447073
1554	0.00143702
1566	0.000319338
1578	0.00228859
1590	0.000745122
1602	0.00127735
1614	0.00117091
1626	0.00186281
1638	0.00287404
1650	0.00218214
1662	0.0025547
1674	0.00372561
1686	0.00883502
1698	0.0141573
1710	0.0223537
1722	0.0374158
1734	0.0607274
1746	0.0891485
1758	0.153282
1770	0.28618
1782	0.460379
1794	0.53223
1806	0.323383
1818	0.191603
1830	0.079249
1842	0.0271437
1854	0.0102188
1866	0.00457718
1878	0.00250148
1890	0.00202247
1902	0.0013838
1914	0.00127735
1926	0.00180958
1938	0.00244826
1950	0.00356594
1962	0.00383206
1974	0.00329983
1986	0.00239504
1998	0.00196925
2010	0.00106446
2022	0.000425784
2034	0.00106446
2046	0.00101124
2058	0.00117091
2070	0.00106446
2082	0.00053223
2094	0.00053223
2106	0.000585453
2118	0.000638676
2130	0.000212892
2142	0.000638676
2154	0.000638676
2166	0.00122413
2178	0.00154347
2190	0.00164991
2202	0.00164991
2214	0.00111768
2226	0.00101124
2238	0.000638676
2250	0.000691899
2262	0.000585453
2274	0.00164991
2286	0.00303371
2298	0.00409817
2310	0.00580131
2322	0.00633354
2334	0.0053223
2346	0.00606742
2358	0.00771734
2370	0.00537552
2382	0.00329983
2394	0.00111768
2406	0.00159669
2418	0.00170314
2430	0.00260793
2442	0.0020757
2454	0.00212892
2466	0.00117091
2478	0.00133058
2490	0.00117091
2502	0.00111768
2514	0.00164991
2526	0.00159669
2538	0.00170314
2550	0.00159669
2562	0.00111768
2574	0.00111768
2586	0.000585453
2598	0.000691899
2610	0.000212892
2622	0.000638676
2634	0.00111768
2646	0.00133058
2658	0.00122413
2670	0.00164991
2682	0.00117091
2694	0.00111768
2706	0.000958014
2718	0.000691899
2730	0.000638676
2742	0.000691899
2754	0.00117091
2766	0.00122413
2778	0.00122413
2790	0.00164991
2802	0.00170314
2814	0.00170314
2826	0.00164991
2838	0.00223537
2850	0.00260793
2862	0.00212892
2874	0.00266115
2886	0.00271437
2898	0.00271437
2910	0.00351272
2922	0.00436429
2934	0.00516263
2946	0.00612065
2958	0.00867535
2970	0.0120284
2982	0.015275
2994	0.0136783
3006	0.0085689
3018	0.00612065
3030	0.00542875
3042	0.00468362
3054	0.00420462
3066	0.00415139
3078	0.00431106
3090	0.00399172
3102	0.00329983
3114	0.00282082
3126	0.00287404
3138	0.00303371
3150	0.00287404
3162	0.00287404
3174	0.00244826
3186	0.00266115
3198	0.00239504
3210	0.00244826
3222	0.00234181
3234	0.00180958
3246	0.00239504
3258	0.00250148
3270	0.00191603
3282	0.00186281
3294	0.00143702
3306	0.00164991
3318	0.00101124
3330	0.00101124
3342	0.00101124
3354	0.000425784
3366	0.000904791
3378	0.00053223
3390	0.00053223
3402	0.00053223
3414	0.000159669
3426	0.00053223
3438	0.00053223
3450	0.000585453
3462	0.000798345
3474	0.000691899
3486	0.00101124
3498	0.00303371
3510	0.00798345
3522	0.0134654
3534	0.015754
3546	0.020278
3558	0.0344353
3570	0.142957
3582	0.213744
3594	0.134548
3606	0.0278356
3618	0.0104317
3630	0.00569486
3642	0.0020757
3654	0.00111768
3666	0.000691899
3678	0.00228859
3690	0.00170314
3702	0.000159669
3714	0.00159669
3726	0.000798345
3738	0.00218214
3750	0.0020757
3762	0.000691899
3774	0.000266115
3786	0.000212892
3798	0.000266115
3810	0.000798345
3822	0.000798345
3834	0.000958014
3846	0.00101124
3858	0.00133058
3870	0.00180958
3882	0.000798345
3894	0.000798345
3906	0.00143702
3918	0.00180958
3930	0.00133058
3942	0.000851568
3954	0
3966	5.3223e-05
