Infrared Spectrum: Propene, 2-chloro-
Formula: C3 H5 Cl
CAS: 557-98-2
State: SOLUTION (10% CCl4 FOR 2.6-7.5, 10% CS2 FOR 7.5-24)
Class: COBLENTZ III
Instrument: BECKMAN IR-9 (GRATING)
Instrument parameters: ORDER CHANGED AT 670, 1200, 2000 CM^-^1
Sampling: TRANSMISSION
Path length: 0.012 CM, 0.011 CM
Resolution: 2
Origin: DOW CHEMICAL COMPANY
1/CM	TRANSMITTANCE
3800	0.9215
3791	0.9241
3782	0.9234
3773	0.9257
3764	0.9255
3755	0.9241
3746	0.9225
3737	0.9234
3728	0.9244
3719	0.9245
3710	0.9283
3701	0.9301
3692	0.9292
3683	0.9282
3674	0.9284
3665	0.9286
3656	0.9272
3647	0.9257
3638	0.9252
3629	0.9249
3620	0.9261
3611	0.9258
3602	0.9245
3593	0.9253
3584	0.9249
3575	0.9237
3566	0.9233
3557	0.9233
3548	0.9249
3539	0.9241
3530	0.9241
3521	0.922
3512	0.9214
3503	0.921
3494	0.9208
3485	0.9203
3476	0.9203
3467	0.9202
3458	0.9201
3449	0.9196
3440	0.919
3431	0.9181
3422	0.9166
3413	0.9118
3404	0.9071
3395	0.9026
3386	0.8999
3377	0.8974
3368	0.8949
3359	0.893
3350	0.8919
3341	0.8914
3332	0.8923
3323	0.8977
3314	0.908
3305	0.9168
3296	0.9157
3287	0.9088
3278	0.9026
3269	0.901
3260	0.9066
3251	0.9134
3242	0.9187
3233	0.9189
3224	0.9192
3215	0.9197
3206	0.918
3197	0.9187
3188	0.9185
3179	0.9159
3170	0.9141
3161	0.9137
3152	0.9141
3143	0.9117
3134	0.9122
3125	0.9085
3116	0.8814
3107	0.8553
3098	0.8763
3089	0.9024
3080	0.9111
3071	0.9185
3062	0.9134
3053	0.905
3044	0.9098
3035	0.9107
3026	0.8935
3017	0.8498
3008	0.8471
2999	0.8469
2990	0.7031
2981	0.5119
2972	0.5877
2963	0.5687
2954	0.5956
2945	0.78
2936	0.8017
2927	0.6114
2918	0.6802
2909	0.762
2900	0.8547
2891	0.8744
2882	0.8763
2873	0.8367
2864	0.8539
2855	0.8655
2846	0.8874
2837	0.8982
2828	0.9057
2819	0.9137
2810	0.9183
2801	0.9248
2792	0.9292
2783	0.933
2774	0.9378
2765	0.9398
2756	0.9397
2747	0.9378
2738	0.9367
2729	0.9397
2720	0.9448
2711	0.9498
2702	0.953
2693	0.9533
2684	0.9533
2675	0.9529
2666	0.9519
2657	0.952
2648	0.949
2639	0.9464
2630	0.9461
2621	0.9492
2612	0.9511
2603	0.9531
2594	0.9553
2585	0.9565
2576	0.9547
2567	0.9465
2558	0.9355
2549	0.9438
2540	0.9537
2531	0.9592
2522	0.9596
2513	0.9597
2504	0.9597
2495	0.9597
2486	0.9596
2477	0.9613
2468	0.961
2459	0.9602
2450	0.9583
2441	0.9588
2432	0.9562
2423	0.952
2414	0.9489
2405	0.9536
2396	0.9583
2387	0.9614
2378	0.964
2369	0.9641
2360	0.9637
2351	0.9672
2342	0.9674
2333	0.9663
2324	0.9708
2315	0.9634
2306	0.9503
2297	0.9501
2288	0.9522
2279	0.9578
2270	0.9599
2261	0.9608
2252	0.9616
2243	0.9619
2234	0.9633
2225	0.965
2216	0.9644
2207	0.9649
2198	0.9654
2189	0.9641
2180	0.9644
2171	0.9663
2162	0.9647
2153	0.9647
2144	0.9647
2135	0.9644
2126	0.9638
2117	0.9623
2108	0.9584
2099	0.9532
2090	0.9513
2081	0.9504
2072	0.9501
2063	0.95
2054	0.9508
2045	0.9481
2036	0.9454
2027	0.9444
2018	0.9433
2009	0.9418
2000	0.9381
1991	0.9463
1982	0.9461
1973	0.9453
1964	0.9473
1955	0.9507
1946	0.9486
1937	0.948
1928	0.9461
1919	0.9448
1910	0.9443
1901	0.9456
1892	0.9452
1883	0.9447
1874	0.9471
1865	0.9437
1856	0.9336
1847	0.9261
1838	0.9374
1829	0.9377
1820	0.9329
1811	0.9303
1802	0.9266
1793	0.9245
1784	0.9113
1775	0.8661
1766	0.8357
1757	0.8601
1748	0.897
1739	0.9186
1730	0.9211
1721	0.9199
1712	0.9179
1703	0.9124
1694	0.9019
1685	0.8879
1676	0.8656
1667	0.8249
1658	0.662
1649	0.2378
1640	0.0928
1631	0.4161
1622	0.7097
1613	0.7766
1604	0.8328
1595	0.8462
1586	0.837
1577	0.8375
1568	0.7914
1559	0.7888
1550	0.857
1541	0.9174
1532	0.9109
1523	0.9067
1514	0.9138
1505	0.9128
1496	0.8999
1487	0.8825
1478	0.8802
1469	0.8492
1460	0.7846
1451	0.5281
1442	0.1439
1433	0.6052
1424	0.486
1415	0.6312
1406	0.8093
1397	0.8154
1388	0.7307
1379	0.5625
1370	0.6967
1361	0.701
1352	0.8816
1343	0.9082
1334	0.9112
1325	0.9055
1316	0.888
1307	0.8657
1298	0.9152
1289	0.9332
1280	0.9274
1271	0.8768
1262	0.7819
1253	0.8415
1244	0.8789
1235	0.888
1226	0.8842
1217	0.8688
1208	0.8365
1199	0.7293
1190	0.5835
1181	0.1782
1172	0.03
1163	0.2801
1154	0.6099
1145	0.8022
1136	0.8231
1127	0.7145
1118	0.8332
1109	0.9209
1100	0.9322
1091	0.9376
1082	0.9414
1073	0.9403
1064	0.9127
1055	0.9349
1046	0.9332
1037	0.9327
1028	0.9402
1019	0.9411
1010	0.9278
1001	0.8712
992	0.9281
983	0.9377
974	0.9375
965	0.9395
956	0.935
947	0.9165
938	0.8819
929	0.6194
920	0.7365
911	0.8533
902	0.8228
893	0.6518
884	0.2289
875	0.0272
866	0.275
857	0.8009
848	0.8732
839	0.9124
830	0.9401
821	0.9574
812	0.9616
803	0.9636
794	0.9622
785	0.9711
776	0.9748
767	0.9696
758	0.9592
749	0.9555
740	0.9552
731	0.953
722	0.952
713	0.9437
704	0.9308
695	0.9198
686	0.9273
677	0.9336
668	0.9389
659	0.8813
650	0.7909
641	0.4881
632	0.0519
623	0.4312
614	0.8332
605	0.9157
596	0.9498
587	0.9675
578	0.9757
569	0.9805
560	0.9791
551	0.9744
542	0.9657
533	0.9794
524	0.9835
515	0.9819
506	0.976
497	0.9629
488	0.945
479	0.9192
470	0.8867
461	0.8434
452	0.7668
443	0.6249
434	0.3369
425	0.5394
416	0.3115
407	0.0699
