Infrared Spectrum: 2-CHLOROPROPENE
Formula: C3 H5 Cl
CAS: 557-98-2
Class: COBLENTZ
Instrument: Not specified, most likely a prism, grating, or hybrid spectrometer.
Sampling: TRANSMISSION
Path length: 0.0025 CM
Resolution: 4
Origin: W.T. BOLLETER
MICROMETERS	TRANSMITTANCE
14.528	0.557
14.5984	0.55
14.6689	0.528
14.7393	0.503
14.8097	0.471
14.8802	0.421
14.9506	0.378
15.021	0.315
15.0915	0.256
15.1619	0.198
15.2323	0.161
15.3028	0.112
15.3732	0.1
15.4436	0.087
15.5141	0.062
15.5845	0.051
15.6549	0.05
15.7254	0.048
15.7958	0.05
15.8662	0.051
15.9367	0.057
16.0071	0.071
16.0775	0.102
16.148	0.123
16.2184	0.17
16.2888	0.227
16.3593	0.295
16.4297	0.347
16.5001	0.406
16.5706	0.453
16.641	0.5
16.7114	0.539
16.7819	0.584
16.8523	0.636
16.9227	0.668
16.9932	0.698
17.0636	0.722
17.134	0.731
17.2045	0.749
17.2749	0.758
17.3453	0.77
17.4158	0.779
17.4862	0.79
17.5566	0.799
17.6271	0.808
17.6975	0.817
17.7679	0.826
17.8384	0.833
17.9088	0.835
17.9792	0.836
18.0497	0.826
18.1201	0.813
18.1905	0.795
18.2609	0.786
18.3314	0.783
18.4018	0.786
18.4722	0.799
18.5427	0.822
18.6131	0.833
18.6835	0.854
18.754	0.865
18.8244	0.872
18.8948	0.879
18.9653	0.883
19.0357	0.887
19.1061	0.888
19.1766	0.89
19.247	0.888
19.3174	0.888
19.3879	0.885
19.4583	0.883
19.5287	0.878
19.5992	0.87
19.6696	0.869
19.74	0.86
19.8105	0.851
19.8809	0.849
19.9513	0.84
20.0218	0.833
20.0922	0.822
20.1626	0.811
20.2331	0.799
20.3035	0.786
20.3739	0.783
20.4444	0.777
20.5148	0.772
20.5852	0.767
20.6557	0.765
20.7261	0.759
20.7965	0.758
20.867	0.754
20.9374	0.749
21.0078	0.745
21.0783	0.74
21.1487	0.736
21.2191	0.729
21.2896	0.724
21.36	0.709
21.4304	0.7
21.5009	0.682
21.5713	0.664
21.6417	0.652
21.7122	0.629
21.7826	0.6
21.853	0.573
21.9235	0.55
21.9939	0.521
22.0643	0.483
22.1348	0.449
22.2052	0.401
22.2756	0.363
22.3461	0.324
22.4165	0.279
22.4869	0.236
22.5574	0.204
22.6278	0.181
22.6982	0.163
22.7687	0.15
22.8391	0.139
22.9095	0.125
22.98	0.123
23.0504	0.125
23.1208	0.13
23.1913	0.15
23.2617	0.173
23.3321	0.197
23.4026	0.229
23.473	0.259
23.5434	0.306
23.6139	0.347
23.6843	0.388
23.7547	0.431
23.8252	0.467
23.8956	0.508
23.966	0.53
24.0365	0.562
24.1069	0.577
24.1773	0.598
24.2478	0.611
24.3182	0.62
24.3886	0.625
24.4591	0.629
24.5295	0.625
24.5999	0.611
24.6704	0.602
24.7408	0.58
24.8112	0.553
24.8817	0.532
24.9521	0.519
25.0225	0.5
25.093	0.476
25.1634	0.464
25.2338	0.458
25.3043	0.46
25.3747	0.478
25.4451	0.503
25.5155	0.537
25.586	0.578
25.6564	0.602
25.7268	0.637
25.7973	0.659
25.8677	0.681
25.9381	0.7
26.0086	0.711
26.079	0.729
26.1494	0.736
26.2199	0.752
26.2903	0.759
26.3607	0.77
26.4312	0.779
26.5016	0.788
26.572	0.795
26.6425	0.802
26.7129	0.808
26.7833	0.811
26.8538	0.815
26.9242	0.82
26.9946	0.822
27.0651	0.826
27.1355	0.827
27.2059	0.831
27.2764	0.831
27.3468	0.831
27.4172	0.831
27.4877	0.829
27.5581	0.824
27.6285	0.815
27.699	0.808
27.7694	0.801
27.8398	0.788
27.9103	0.777
27.9807	0.77
28.0511	0.75
28.1216	0.731
28.192	0.715
28.2624	0.691
28.3329	0.666
28.4033	0.648
28.4737	0.629
28.5442	0.6
28.6146	0.571
28.685	0.557
28.7555	0.55
28.8259	0.544
28.8963	0.541
28.9668	0.543
29.0372	0.551
29.1076	0.569
29.1781	0.598
29.2485	0.629
29.3189	0.652
29.3894	0.686
29.4598	0.706
29.5302	0.756
29.6007	0.774
29.6711	0.797
29.7415	0.818
29.812	0.833
29.8824	0.851
29.9528	0.86
30.0233	0.876
30.0937	0.89
30.1641	0.899
30.2346	0.913
30.305	0.926
30.3754	0.93
30.4459	0.931
30.5163	0.937
30.5867	0.94
30.6572	0.94
30.7276	0.944
30.798	0.948
30.8685	0.949
30.9389	0.948
31.0093	0.948
31.0798	0.946
31.1502	0.948
31.2206	0.949
31.2911	0.949
31.3615	0.949
31.4319	0.949
31.5024	0.951
31.5728	0.948
31.6432	0.949
31.7137	0.948
31.7841	0.942
31.8545	0.94
31.925	0.937
31.9954	0.939
32.0658	0.937
32.1363	0.939
32.2067	0.928
32.2771	0.93
32.3476	0.93
32.418	0.928
32.4884	0.926
32.5589	0.926
32.6293	0.928
32.6997	0.935
32.7701	0.944
32.8406	0.951
32.911	0.962
32.9814	0.953
33.0519	0.931
33.1223	0.919
33.1927	0.901
33.2632	0.899
33.3336	0.892
33.404	0.905
33.4745	0.919
33.5449	0.933
33.6153	0.931
33.6858	0.93
33.7562	0.928
33.8266	0.93
33.8971	0.928
33.9675	0.926
34.0379	0.926
34.1084	0.924
34.1788	0.924
34.2492	0.921
34.3197	0.922
34.3901	0.922
34.4605	0.917
34.531	0.906
34.6014	0.892
34.6718	0.87
34.7423	0.867
34.8127	0.863
34.8831	0.862
34.9536	0.863
35.024	0.862
35.0944	0.858
35.1649	0.856
35.2353	0.854
35.3057	0.853
35.3762	0.847
35.4466	0.844
35.517	0.84
35.5875	0.835
35.6579	0.826
35.7283	0.822
35.7988	0.811
35.8692	0.81
35.9396	0.802
36.0101	0.797
36.0805	0.783
36.1509	0.781
36.2214	0.779
36.2918	0.775
36.3622	0.774
36.4327	0.759
36.5031	0.759
36.5735	0.754
36.644	0.75
36.7144	0.743
36.7848	0.74
36.8553	0.736
36.9257	0.732
36.9961	0.722
37.0666	0.711
37.137	0.707
37.2074	0.704
37.2779	0.702
37.3483	0.702
37.4187	0.7
37.4892	0.7
37.5596	0.698
37.63	0.691
37.7005	0.688
37.7709	0.688
37.8413	0.679
37.9118	0.666
37.9822	0.659
