Infrared Spectrum: Cyclopropanecarboxylic acid
Formula: C4 H6 O2
CAS: 1759-53-1
State: SOLUTION (2% CCl4 FOR 3800-1340, 2% CS2 FOR 1340-450 CM^-^1)
Class: COBLENTZ III
Instrument: DOW KBr FOREPRISM-GRATING
Instrument parameters: BLAZED AT 3.5, 12.0, 20.0 MICRON AND CHANGED AT 5.0, 7.5, 14.9 MICRON
Sampling: TRANSMISSION
Path length: 0.011 CM, 0.011 CM
Resolution: 2
Origin: DOW CHEMICAL COMPANY
1/CM	TRANSMITTANCE
3812	0.8956
3803	0.8996
3794	0.8993
3785	0.8954
3776	0.8949
3767	0.8966
3758	0.8994
3749	0.9039
3740	0.9005
3731	0.8992
3722	0.8988
3713	0.8952
3704	0.8931
3695	0.8874
3686	0.8891
3677	0.893
3668	0.8943
3659	0.8889
3650	0.8878
3641	0.8906
3632	0.8898
3623	0.8896
3614	0.8907
3605	0.8907
3596	0.8913
3587	0.8918
3578	0.892
3569	0.8912
3560	0.8894
3551	0.8848
3542	0.8798
3533	0.8766
3524	0.8806
3515	0.8849
3506	0.8866
3497	0.8862
3488	0.885
3479	0.8842
3470	0.8842
3461	0.8839
3452	0.8834
3443	0.8827
3434	0.8815
3425	0.879
3416	0.8777
3407	0.8755
3398	0.8716
3389	0.8672
3380	0.8617
3371	0.8564
3362	0.8509
3353	0.8447
3344	0.8385
3335	0.8308
3326	0.8238
3317	0.8168
3308	0.8102
3299	0.8011
3290	0.7911
3281	0.7809
3272	0.7706
3263	0.7598
3254	0.749
3245	0.7381
3236	0.7283
3227	0.7174
3218	0.7059
3209	0.6932
3200	0.6793
3191	0.6678
3182	0.6574
3173	0.6482
3164	0.6391
3155	0.626
3146	0.6079
3137	0.5893
3128	0.5704
3119	0.5513
3110	0.531
3101	0.5136
3092	0.5059
3083	0.4987
3074	0.4936
3065	0.4861
3056	0.4776
3047	0.4686
3038	0.4571
3029	0.4377
3020	0.4163
3011	0.4454
3002	0.4757
2993	0.4899
2984	0.4893
2975	0.4701
2966	0.4548
2957	0.445
2948	0.4425
2939	0.4519
2930	0.4603
2921	0.4557
2912	0.4486
2903	0.4503
2894	0.4596
2885	0.4611
2876	0.4666
2867	0.4777
2858	0.4937
2849	0.5076
2840	0.5233
2831	0.5403
2822	0.5557
2813	0.567
2804	0.5764
2795	0.578
2786	0.5789
2777	0.5798
2768	0.59
2759	0.6034
2750	0.6165
2741	0.6302
2732	0.6447
2723	0.65
2714	0.633
2705	0.5987
2696	0.5662
2687	0.5481
2678	0.5464
2669	0.5534
2660	0.551
2651	0.567
2642	0.5919
2633	0.612
2624	0.625
2615	0.6227
2606	0.6272
2597	0.638
2588	0.6384
2579	0.6189
2570	0.5754
2561	0.5472
2552	0.5692
2543	0.6158
2534	0.6479
2525	0.6725
2516	0.6893
2507	0.7031
2498	0.7148
2489	0.7258
2480	0.7355
2471	0.7433
2462	0.7441
2453	0.7386
2444	0.7419
2435	0.7538
2426	0.7674
2417	0.7803
2408	0.7884
2399	0.7931
2390	0.7964
2381	0.8021
2372	0.8074
2363	0.8096
2354	0.8156
2345	0.8205
2336	0.8243
2327	0.8288
2318	0.826
2309	0.826
2300	0.8219
2291	0.8165
2282	0.8095
2273	0.809
2264	0.8159
2255	0.8222
2246	0.8257
2237	0.8297
2228	0.8337
2219	0.8374
2210	0.8372
2201	0.8362
2192	0.8342
2183	0.8338
2174	0.8347
2165	0.8357
2156	0.8374
2147	0.8392
2138	0.8362
2129	0.831
2120	0.8292
2111	0.8362
2102	0.8398
2093	0.835
2084	0.8323
2075	0.8408
2066	0.843
2057	0.8381
2048	0.8408
2039	0.8432
2030	0.8438
2021	0.8429
2012	0.8399
2003	0.8356
1994	0.8093
1985	0.8178
1976	0.8181
1967	0.8149
1958	0.813
1949	0.8122
1940	0.8143
1931	0.8157
1922	0.8161
1913	0.8132
1904	0.8142
1895	0.8154
1886	0.8151
1877	0.8107
1868	0.8039
1859	0.7992
1850	0.7969
1841	0.7952
1832	0.7939
1823	0.7979
1814	0.7962
1805	0.7901
1796	0.7868
1787	0.7941
1778	0.7888
1769	0.786
1760	0.7518
1751	0.7025
1742	0.7128
1733	0.7093
1724	0.6229
1715	0.4844
1706	0.1037
1697	0.0065
1688	0.086
1679	0.4336
1670	0.6066
1661	0.6871
1652	0.709
1643	0.7365
1634	0.7626
1625	0.7861
1616	0.7988
1607	0.7978
1598	0.7843
1589	0.7507
1580	0.6782
1571	0.6558
1562	0.6129
1553	0.6011
1544	0.5722
1535	0.6218
1526	0.6727
1517	0.7003
1508	0.712
1499	0.7323
1490	0.7543
1481	0.7318
1472	0.6293
1463	0.54
1454	0.3709
1445	0.5244
1436	0.2427
1427	0.5475
1418	0.5837
1409	0.7349
1400	0.7972
1391	0.8229
1382	0.8376
1373	0.8211
1364	0.7946
1355	0.7182
1346	0.6183
1337	0.6917
1328	0.843
1319	0.8902
1310	0.8864
1301	0.826
1292	0.5064
1283	0.6078
1274	0.8141
1265	0.8771
1256	0.8817
1247	0.8059
1238	0.0866
1229	0.1826
1220	0.6227
1211	0.7853
1202	0.8542
1193	0.8809
1184	0.8309
1175	0.8816
1166	0.9142
1157	0.9312
1148	0.942
1139	0.9489
1130	0.9454
1121	0.9073
1112	0.9314
1103	0.9285
1094	0.7701
1085	0.885
1076	0.8918
1067	0.7395
1058	0.6621
1049	0.9065
1040	0.9176
1031	0.8815
1022	0.737
1013	0.9039
1004	0.9188
995	0.9202
986	0.9088
977	0.8896
968	0.8453
959	0.7649
950	0.6568
941	0.5547
932	0.3175
923	0.3935
914	0.5999
905	0.6795
896	0.6679
887	0.7297
878	0.7808
869	0.7923
860	0.7926
851	0.7753
842	0.8219
833	0.8591
824	0.8498
815	0.8095
806	0.8944
797	0.9068
788	0.9097
779	0.9102
770	0.9155
761	0.9287
752	0.9338
743	0.9264
734	0.9338
725	0.9397
716	0.9406
707	0.9419
698	0.9431
689	0.9419
680	0.9408
671	0.9296
662	0.9354
653	0.8758
644	0.7061
635	0.8859
626	0.9226
617	0.9183
608	0.9499
599	0.9586
590	0.9549
581	0.9476
572	0.953
563	0.9514
554	0.9461
545	0.9405
536	0.9365
527	0.9246
518	0.8811
509	0.7023
500	0.8764
491	0.8474
482	0.8544
473	0.8907
464	0.8892
455	0.8842
