Infrared Spectrum: Cyclopropylmethanoic acid
Formula: C 4 H 6 O 2
CAS: 1759-53-1
State: gas
Instrument: HP-GC/MS/IRD
Origin: NIST Mass Spectrometry Data Center
1/CM	ABSORBANCE
550	0.001509
562	0.002429
574	0.002585
586	0.002626
598	0.001744
610	0.00117
622	0.000721
634	0.000315
646	0.000107
658	8.2e-05
670	1.3e-05
682	0.000105
694	8.4e-05
706	6.3e-05
718	0.000135
730	0.000322
742	0.000566
754	0.000796
766	0.000594
778	0.000384
790	0.000277
802	0.00029
814	0.000464
826	0.000552
838	0.000453
850	0.000276
862	0.000152
874	0.000143
886	0.000214
898	0.000453
910	0.001003
922	0.001143
934	0.00094
946	0.000437
958	0.000203
970	0.000236
982	0.000279
994	0.000472
1006	0.000874
1018	0.001143
1030	0.001368
1042	0.001306
1054	0.001083
1066	0.000922
1078	0.001023
1090	0.001716
1102	0.004029
1114	0.008319
1126	0.009947
1138	0.009164
1150	0.00367
1162	0.002179
1174	0.001761
1186	0.001592
1198	0.001168
1210	0.000603
1222	0.00029
1234	0.000232
1246	0.000301
1258	0.000503
1270	0.00057
1282	0.000561
1294	0.000434
1306	0.000364
1318	0.000344
1330	0.000466
1342	0.000549
1354	0.000599
1366	0.000587
1378	0.0008
1390	0.00153
1402	0.002589
1414	0.002822
1426	0.002215
1438	0.000942
1450	0.00064
1462	0.000468
1474	0.000307
1486	0.000135
1498	0.000103
1510	0.000111
1522	9.4e-05
1534	0.0001
1546	7.2e-05
1558	3.5e-05
1570	4e-05
1582	2.3e-05
1594	4.6e-05
1606	3.5e-05
1618	3.2e-05
1630	5.7e-05
1642	8.5e-05
1654	9.5e-05
1666	0.000139
1678	0.000143
1690	0.000215
1702	0.000366
1714	0.000596
1726	0.001072
1738	0.002316
1750	0.005162
1762	0.009227
1774	0.009893
1786	0.008157
1798	0.002954
1810	0.000948
1822	0.000435
1834	0.000336
1846	0.000287
1858	0.000202
1870	0.000143
1882	0.000113
1894	0.000107
1906	9.9e-05
1918	6.7e-05
1930	6.6e-05
1942	6.3e-05
1954	6.4e-05
1966	3.9e-05
1978	3.2e-05
1990	1.4e-05
2002	2e-05
2014	4.3e-05
2026	4e-05
2038	3e-05
2050	4.3e-05
2062	4.1e-05
2074	4.4e-05
2086	4e-05
2098	4.5e-05
2110	3.3e-05
2122	3.6e-05
2134	3.1e-05
2146	1.4e-05
2158	7e-06
2170	1.9e-05
2182	1e-05
2194	3.9e-05
2206	4.6e-05
2218	5.9e-05
2230	7.6e-05
2242	7e-05
2254	4e-05
2266	3.9e-05
2278	3.4e-05
2290	1.6e-05
2302	3.2e-05
2314	2e-06
2326	2e-05
2338	3e-05
2350	2.8e-05
2362	1.5e-05
2374	4.1e-05
2386	3.1e-05
2398	3.8e-05
2410	3.5e-05
2422	3.6e-05
2434	1.9e-05
2446	2.4e-05
2458	2.5e-05
2470	3.5e-05
2482	3.3e-05
2494	5.3e-05
2506	5.7e-05
2518	3.1e-05
2530	4.3e-05
2542	5e-05
2554	4.4e-05
2566	3.6e-05
2578	3.1e-05
2590	1.7e-05
2602	4.6e-05
2614	4.8e-05
2626	4.5e-05
2638	3.9e-05
2650	4.4e-05
2662	5.2e-05
2674	5e-05
2686	5.5e-05
2698	5.5e-05
2710	4.3e-05
2722	2.9e-05
2734	2.7e-05
2746	4.7e-05
2758	5.7e-05
2770	2.7e-05
2782	4.7e-05
2794	6.2e-05
2806	8.1e-05
2818	6e-05
2830	5.4e-05
2842	5.2e-05
2854	6.1e-05
2866	6.9e-05
2878	6.9e-05
2890	7.7e-05
2902	7.8e-05
2914	6.5e-05
2926	5.4e-05
2938	4.4e-05
2950	6.5e-05
2962	8.5e-05
2974	7.8e-05
2986	0.000129
2998	0.000271
3010	0.000475
3022	0.000718
3034	0.000686
3046	0.000492
3058	0.000259
3070	0.000204
3082	0.000198
3094	0.000274
3106	0.000332
3118	0.000276
3130	0.000197
3142	0.000107
3154	6.1e-05
3166	5.3e-05
3178	4.8e-05
3190	6.1e-05
3202	5.1e-05
3214	3.1e-05
3226	3.5e-05
3238	4.8e-05
3250	2.4e-05
3262	4.3e-05
3274	3.7e-05
3286	1.8e-05
3298	5.3e-05
3310	4.7e-05
3322	4.8e-05
3334	3.9e-05
3346	4e-05
3358	4.8e-05
3370	3e-05
3382	5.6e-05
3394	2.9e-05
3406	3e-05
3418	3.4e-05
3430	1.8e-05
3442	3.7e-05
3454	6.2e-05
3466	4.5e-05
3478	4.4e-05
3490	6.9e-05
3502	9.7e-05
3514	0.000133
3526	0.000147
3538	0.00019
3550	0.000325
3562	0.001308
3574	0.002381
3586	0.002453
3598	0.001602
3610	0.000391
3622	0.00013
3634	4.5e-05
3646	5.3e-05
3658	3.8e-05
3670	3.9e-05
3682	6e-06
3694	1.7e-05
3706	9e-06
3718	3.5e-05
3730	1e-06
3742	2.2e-05
3754	1e-06
3766	9e-06
3778	1.1e-05
3790	4e-06
3802	7e-06
3814	2.4e-05
3826	1.3e-05
3838	4.2e-05
