Infrared Spectrum: Trimethylacetonitrile
Formula: C 5 H 9 N
CAS: 630-18-2
State: gas
Instrument: HP-GC/MS/IRD
Origin: NIST Mass Spectrometry Data Center
1/CM	ABSORBANCE
550	0.0001917
562	6.48e-05
574	0
586	0.000216
598	0.0001728
610	0.0002295
622	9.99e-05
634	8.1e-05
646	0.0001458
658	0.0003537
670	0.0004833
682	0.0006804
694	0.0004698
706	0.0001863
718	9.99e-05
730	0.0002025
742	0.0002403
754	0.0002538
766	0.0003483
778	0.0002403
790	0.0001269
802	0.0001458
814	0.000108
826	0.0001512
838	0.0001782
850	0.000216
862	0.0002187
874	0.0002862
886	0.0001998
898	0.0001728
910	0.0002673
922	0.0003699
934	0.0005562
946	0.0003672
958	0.0002106
970	0.0001566
982	0.0001242
994	8.37e-05
1006	9.18e-05
1018	0.0001296
1030	0.0002322
1042	0.0002052
1054	0.0001431
1066	0.0001917
1078	9.18e-05
1090	0.0001566
1102	0.0001782
1114	0.0002889
1126	0.0002673
1138	0.0004752
1150	0.000459
1162	0.000405
1174	0.0006561
1186	0.0014796
1198	0.0031779
1210	0.0046548
1222	0.0036504
1234	0.0038583
1246	0.0042282
1258	0.0030024
1270	0.0014634
1282	0.0006291
1294	0.0004239
1306	0.0003348
1318	0.0003213
1330	0.0003591
1342	0.0007614
1354	0.0020412
1366	0.0034047
1378	0.0048195
1390	0.003564
1402	0.0017955
1414	0.0011394
1426	0.0009288
1438	0.0017334
1450	0.0031617
1462	0.0047412
1474	0.0047574
1486	0.0039258
1498	0.0025974
1510	0.0008559
1522	0.0004509
1534	0.0003213
1546	0.0002565
1558	0.0002079
1570	0.0001944
1582	0.000189
1594	0.0001647
1606	0.0001944
1618	0.0001728
1630	0.0001809
1642	0.0001863
1654	0.0001971
1666	0.000216
1678	0.0002133
1690	0.0001701
1702	0.000189
1714	0.0001647
1726	0.0001782
1738	0.0001809
1750	0.0001647
1762	0.0001458
1774	0.0001539
1786	0.0001404
1798	0.0001377
1810	0.0001431
1822	0.0001512
1834	0.0001161
1846	0.0001377
1858	7.56e-05
1870	0.0001215
1882	0.0001404
1894	0.0001269
1906	0.0001323
1918	0.0001242
1930	0.0001107
1942	0.0001053
1954	0.0001215
1966	0.0001323
1978	0.000135
1990	8.64e-05
2002	7.56e-05
2014	8.91e-05
2026	9.45e-05
2038	0.0001242
2050	0.0001512
2062	0.0001269
2074	8.1e-05
2086	8.37e-05
2098	5.67e-05
2110	7.56e-05
2122	3.78e-05
2134	4.59e-05
2146	7.02e-05
2158	5.4e-05
2170	6.75e-05
2182	7.56e-05
2194	5.94e-05
2206	0.0001701
2218	0.0003105
2230	0.000567
2242	0.0007155
2254	0.0005211
2266	0.0001458
2278	0.0001269
2290	0.0001431
2302	0.0001377
2314	0.0001296
2326	0.0001215
2338	8.1e-05
2350	5.94e-05
2362	5.94e-05
2374	8.1e-05
2386	0.0001215
2398	0.0001269
2410	0.0001917
2422	0.0002133
2434	0.0001809
2446	6.21e-05
2458	7.29e-05
2470	8.1e-05
2482	0.0001026
2494	9.72e-05
2506	8.37e-05
2518	5.94e-05
2530	3.24e-05
2542	1.89e-05
2554	8.64e-05
2566	0.0001026
2578	0.0001593
2590	0.0001674
2602	0.0002106
2614	0.0002079
2626	0.0002187
2638	0.000135
2650	0.0001539
2662	0.0001053
2674	0.0001107
2686	0.0001188
2698	0.0001485
2710	0.0001728
2722	0.0002214
2734	0.0002781
2746	0.0002754
2758	0.0003105
2770	0.0003132
2782	0.0003861
2794	0.0004914
2806	0.0006021
2818	0.0006318
2830	0.0006831
2842	0.000837
2854	0.0013554
2866	0.0025569
2878	0.0039825
2890	0.0049896
2902	0.0053271
2914	0.0059238
2926	0.0069336
2938	0.0075897
2950	0.0090126
2962	0.0123471
2974	0.0206226
2986	0.027
2998	0.0182736
3010	0.0071955
3022	0.001809
3034	0.0007938
3046	0.0005724
3058	0.0005211
3070	0.0004455
3082	0.0004455
3094	0.0005508
3106	0.0005481
3118	0.0005832
3130	0.0005427
3142	0.0004347
3154	0.0005022
3166	0.0005535
3178	0.0005157
3190	0.0004725
3202	0.0003888
3214	0.000405
3226	0.0004158
3238	0.0004617
3250	0.0003807
3262	0.0002619
3274	0.0002214
3286	0.0001377
3298	0.000162
3310	0.000108
3322	0.0002025
3334	0.0003294
3346	0.0003537
3358	0.000297
3370	0.0003132
3382	0.0002619
3394	0.0001809
3406	0.0001053
3418	1.89e-05
3430	9.45e-05
3442	0.0001647
3454	0.0001485
3466	8.91e-05
3478	0.0001242
3490	8.37e-05
3502	0.0001269
3514	0.0001485
3526	0.0001107
3538	0.0001161
3550	0.0002376
3562	0.0001431
3574	0.0001566
3586	9.72e-05
3598	7.02e-05
3610	0.0001107
3622	0.0001512
3634	0.00027
3646	0.0001836
3658	0.0001647
3670	9.18e-05
3682	0.0001296
3694	0.0001809
3706	0.0001782
3718	0.0001755
3730	0.0001377
3742	0.0001782
3754	9.99e-05
3766	6.21e-05
3778	0.0001485
3790	0.0001701
3802	0.0002538
3814	0.0001998
3826	0.0001674
3838	0.0001728
