Infrared Spectrum: Dimethyl ether
Formula: C 2 H 6 O
CAS: 115-10-6
State: gas
Origin: Sadtler Research Labs Under US-EPA Contract
1/CM	ABSORBANCE
450	0
462	0.0170767
474	0.010159
486	0.00894956
498	0.00711127
510	0.00798204
522	0.00933657
534	0.00754666
546	0.00667589
558	0.00720802
570	0.00628888
582	0.00754666
594	0.00735315
606	0.00595025
618	0.00653076
630	0.00609538
642	0.00672426
654	0.00653076
666	0.00580512
678	0.00556324
690	0.00454734
702	0.00599862
714	0.0058535
726	0.00657914
738	0.00590187
750	0.00440222
762	0.00570837
774	0.00599862
786	0.00541811
798	0.00595025
810	0.00556324
822	0.00628888
834	0.00793366
846	0.0106911
858	0.0151417
870	0.0254458
882	0.0396683
894	0.0623083
906	0.0845129
918	0.092253
930	0.0766276
942	0.108459
954	0.083497
966	0.05481
978	0.0377333
990	0.0254942
1002	0.0167381
1014	0.0132066
1026	0.0121424
1038	0.0144644
1050	0.0211403
1062	0.0485695
1074	0.115861
1086	0.180104
1098	0.199019
1110	0.146386
1122	0.259634
1134	0.156641
1146	0.172654
1158	0.316718
1170	0.407471
1182	0.329005
1194	0.462378
1206	0.209516
1218	0.0659365
1230	0.038217
1242	0.0253006
1254	0.0233172
1266	0.018528
1278	0.0151417
1290	0.0130131
1302	0.0114167
1314	0.0105943
1326	0.00972358
1338	0.0096752
1350	0.00957845
1362	0.00972358
1374	0.0113684
1386	0.0139807
1398	0.0194955
1410	0.025736
1422	0.0310574
1434	0.0448929
1446	0.0641466
1458	0.0907534
1470	0.0836421
1482	0.0654527
1494	0.047215
1506	0.0340567
1518	0.0238494
1530	0.0175121
1542	0.0137388
1554	0.011707
1566	0.0102073
1578	0.0107395
1590	0.00996546
1602	0.00928819
1614	0.00943332
1626	0.00880443
1638	0.00812717
1650	0.00807879
1662	0.00677264
1674	0.00672426
1686	0.00677264
1698	0.00628888
1710	0.00532136
1722	0.00541811
1734	0.00633726
1746	0.00570837
1758	0.0050311
1770	0.00527298
1782	0.00469247
1794	0.00527298
1806	0.00517623
1818	0.00536974
1830	0.00561162
1842	0.00551486
1854	0.00565999
1866	0.00570837
1878	0.00546649
1890	0.00546649
1902	0.0050311
1914	0.00493435
1926	0.00459572
1938	0.0048376
1950	0.00478922
1962	0.0050311
1974	0.0058535
1986	0.00735315
1998	0.00962682
2010	0.0115135
2022	0.0122875
2034	0.0118521
2046	0.0139807
2058	0.0100622
2070	0.0135453
2082	0.0180442
2094	0.0192536
2106	0.0175121
2118	0.020076
2130	0.00778854
2142	0.006047
2154	0.00546649
2166	0.00532136
2178	0.00522461
2190	0.00536974
2202	0.00478922
2214	0.00517623
2226	0.00469247
2238	0.0046441
2250	0.00445059
2262	0.00478922
2274	0.00469247
2286	0.00517623
2298	0.00527298
2310	0.00541811
2322	0.00536974
2334	0.00474085
2346	0.00590187
2358	0.0058535
2370	0.00628888
2382	0.00657914
2394	0.00667589
2406	0.00764341
2418	0.00774016
2430	0.00730478
2442	0.00677264
2454	0.00551486
2466	0.00478922
2478	0.00507948
2490	0.0048376
2502	0.0050311
2514	0.00532136
2526	0.006047
2538	0.00657914
2550	0.00793366
2562	0.00856255
2574	0.00938494
2586	0.00962682
2598	0.0106427
2610	0.0114651
2622	0.0111749
2634	0.0110297
2646	0.0110297
2658	0.0107878
2670	0.0114651
2682	0.0123359
2694	0.0137388
2706	0.012868
2718	0.0131583
2730	0.0133034
2742	0.0152868
2754	0.0203663
2766	0.0303801
2778	0.0541327
2790	0.122488
2802	0.226303
2814	0.227948
2826	0.22727
2838	0.340761
2850	0.293352
2862	0.262537
2874	0.310671
2886	0.357595
2898	0.377671
2910	0.358853
2922	0.357354
2934	0.357499
2946	0.320201
2958	0.264762
2970	0.266697
2982	0.248217
2994	0.223691
3006	0.186683
3018	0.165398
3030	0.0816103
3042	0.0470215
3054	0.0357015
3066	0.0280581
3078	0.0239461
3090	0.0210436
3102	0.0179959
3114	0.0166413
3126	0.0153836
3138	0.0142709
3150	0.0133034
3162	0.011707
3174	0.00996546
3186	0.00928819
3198	0.00851418
3210	0.00793366
3222	0.00803042
3234	0.00701452
3246	0.00701452
3258	0.00701452
3270	0.00643401
3282	0.00633726
3294	0.00619213
3306	0.00590187
3318	0.00701452
3330	0.00653076
3342	0.00643401
3354	0.00633726
3366	0.00595025
3378	0.00653076
3390	0.00643401
3402	0.00561162
3414	0.00609538
3426	0.00570837
3438	0.00561162
3450	0.00599862
3462	0.00619213
3474	0.006047
3486	0.00541811
3498	0.00599862
3510	0.00546649
3522	0.00536974
3534	0.00599862
3546	0.0046441
3558	0.00590187
3570	0.00493435
3582	0.00532136
3594	0.00556324
3606	0.00507948
3618	0.00532136
3630	0.006047
3642	0.00648238
3654	0.0046441
3666	0.00546649
3678	0.0062405
3690	0.00648238
3702	0.00565999
3714	0.00532136
3726	0.006047
3738	0.006047
3750	0.00614375
3762	0.00590187
3774	0.0062405
3786	0.00643401
3798	0.0062405
3810	0.006047
3822	0.00667589
3834	0.00633726
3846	0.00561162
3858	0.00648238
3870	0.00536974
3882	0.00546649
3894	0.00696614
3906	0.00595025
3918	0.006047
3930	0.00657914
3942	0.00561162
3954	0.00701452
3966	0.00551486
