Infrared Spectrum: METHANE, OXYBIS-
Formula: C2 H6 O
CAS: 115-10-6
State: GAS
Class: COBLENTZ
Instrument: DOW KBr FOREPRISM-GRATING
Instrument parameters: GRATING: BLAZED AT 3.5, 12.0, 20.0 MICRON, CHANGED AT 5.0, 7.5, 14.9 MICRON
Sampling: TRANSMISSION
Path length: 5 CM CELL
Resolution: 2
Origin: DOW CHEMICAL COMPANY
1/CM	TRANSMITTANCE
459.259	0.97
468.085	0.976
476.911	0.98
485.737	0.98
494.562	0.98
503.388	0.986
512.214	0.986
521.04	0.984
529.866	0.986
538.692	0.994
547.518	0.996
556.344	1.001
565.169	1.005
573.995	1.005
582.821	1.005
591.647	1.005
600.473	1.005
609.299	1.009
618.125	1.013
626.951	1.009
635.776	1.011
644.602	1.009
653.428	1.007
662.254	1.007
671.08	1.001
679.906	1.005
688.732	1.001
697.557	1.001
706.383	1.001
715.209	1.003
724.035	0.998
732.861	0.998
741.687	1.003
750.513	1
759.339	1.001
768.164	1.003
776.99	1.001
785.816	0.998
794.642	0.994
803.468	1.003
812.294	1.009
821.12	1.009
829.945	1.007
838.771	1.007
847.597	1.005
856.423	0.992
865.249	0.97
874.075	0.938
882.901	0.8781
891.727	0.799
900.552	0.696
909.378	0.5951
918.204	0.559
927.03	0.652
935.856	0.5291
944.682	0.5529
953.508	0.648
962.334	0.7479
971.159	0.8269
979.985	0.892
988.811	0.94
997.637	0.976
1006.46	0.996
1015.29	1.007
1024.11	1.011
1032.94	1.013
1041.77	1.009
1050.59	1.001
1059.42	0.972
1068.24	0.882
1077.07	0.664
1085.9	0.4123
1094.72	0.343
1103.55	0.283
1112.37	0.5193
1121.2	0.238
1130.03	0.496
1138.85	0.7479
1147.68	0.6501
1156.5	0.357
1165.33	0.117
1174.15	0.083
1182.98	0.1108
1191.81	0.079
1200.63	0.1028
1209.46	0.4378
1218.28	0.799
1227.11	0.865
1235.94	0.888
1244.76	0.91
1253.59	0.938
1262.41	0.924
1271.24	0.956
1280.06	0.972
1288.89	0.98
1297.72	0.986
1306.54	0.992
1315.37	0.994
1324.19	0.99
1333.02	0.992
1341.85	0.992
1350.67	0.986
1359.5	0.962
1368.32	0.962
1377.15	0.972
1385.98	0.97
1394.8	0.962
1403.63	0.94
1412.45	0.916
1421.28	0.894
1430.1	0.859
1438.93	0.7811
1447.76	0.714
1456.58	0.511
1465.41	0.5529
1474.23	0.609
1483.06	0.702
1491.89	0.7709
1500.71	0.835
1509.54	0.884
1518.36	0.928
1527.19	0.956
1536.02	0.974
1544.84	0.982
1553.67	0.992
1562.49	0.992
1571.32	0.988
1580.14	0.984
1588.97	0.99
1597.8	0.992
1606.62	0.988
1615.45	0.99
1624.27	0.994
1633.1	0.992
1641.93	0.99
1650.75	0.994
1659.58	0.998
1668.4	0.998
1677.23	1
1686.05	0.998
1694.88	1.001
1703.71	1
1712.53	0.994
1721.36	0.998
1730.18	0.996
1739.01	0.998
1747.84	1.003
1756.66	1.003
1765.49	1
1774.31	1
1783.14	1.001
1791.97	1.001
1800.79	1.003
1809.62	1.001
1818.44	1
1827.27	0.998
1836.09	0.998
1844.92	0.996
1853.75	0.996
1862.57	0.996
1871.4	0.992
1880.22	0.996
1889.05	0.998
1897.88	1
1906.7	1
1915.53	0.998
1924.35	1
1933.18	1
1942	1
1950.83	1
1959.66	0.998
1968.48	0.998
1977.31	0.994
1986.13	0.99
1994.96	0.982
2003.79	0.968
2012.61	0.958
2021.44	0.955
2030.26	0.9563
2039.09	0.9543
2047.92	0.9383
2056.74	0.9751
2065.57	0.9739
2074.39	0.9588
2083.22	0.9272
2092.04	0.9068
2100.87	0.897
2109.7	0.904
2118.52	0.8819
2127.35	0.937
2136.17	0.982
2145	0.986
2153.83	0.984
2162.65	0.984
2171.48	0.9844
2180.3	0.986
2189.13	0.984
2197.96	0.984
2206.78	0.9925
2215.61	0.996
2224.43	0.994
2233.26	0.998
2242.08	0.9986
2250.91	1.0008
2259.74	1.003
2268.56	1.0021
2277.39	1.0043
2286.21	1
2295.04	0.9973
2303.87	0.998
2312.69	0.9976
2321.52	1.0032
2330.34	1.0004
2339.17	1.007
2347.99	1.0102
2356.82	1.0011
2365.65	1.003
2374.47	1.003
2383.3	1.0041
2392.12	1.0011
2400.95	0.9921
2409.78	0.986
2418.6	0.983
2427.43	0.982
2436.25	0.9958
2445.08	1.0031
2453.91	1.007
2462.73	1.007
2471.56	1.007
2480.38	1.0068
2489.21	1.005
2498.03	1.003
2506.86	1.003
2515.69	1.001
2524.51	1.0004
2533.34	0.996
2542.16	0.992
2550.99	0.9917
2559.82	0.988
2568.64	0.9856
2577.47	0.9826
2586.29	0.9756
2595.12	0.97
2603.95	0.97
2612.77	0.97
2621.6	0.972
2630.42	0.974
2639.25	0.974
2648.07	0.976
2656.9	0.98
2665.73	0.98
2674.55	0.9714
2683.38	0.9607
2692.2	0.956
2701.03	0.958
2709.86	0.9627
2718.68	0.97
2727.51	0.978
2736.33	0.9724
2745.16	0.9692
2753.98	0.9623
2762.81	0.9446
2771.64	0.9147
2780.46	0.8535
2789.29	0.6675
2798.11	0.4765
2806.94	0.2442
2815.77	0.2609
2824.59	0.174
2833.42	0.1659
2842.24	0.1964
2851.07	0.262
2859.9	0.2334
2868.72	0.1843
2877.55	0.134
2886.37	0.1041
2895.2	0.1053
2904.02	0.1324
2912.85	0.1418
2921.68	0.1308
2930.5	0.1365
2939.33	0.1638
2948.15	0.2481
2956.98	0.3176
2965.81	0.369
2974.63	0.2913
2983.46	0.2428
2992.28	0.3074
3001.11	0.2961
3009.94	0.2879
3018.76	0.3433
3027.59	0.6519
3036.41	0.8132
3045.24	0.8749
3054.06	0.8987
3062.89	0.9172
3071.72	0.934
3080.54	0.938
3089.37	0.9426
3098.19	0.946
3107.02	0.948
3115.85	0.948
3124.67	0.9527
3133.5	0.956
3142.32	0.958
3151.15	0.96
3159.97	0.964
3168.8	0.968
3177.63	0.968
3186.45	0.9699
3195.28	0.9758
3204.1	0.9799
3212.93	0.98
3221.76	0.982
3230.58	0.984
3239.41	0.986
3248.23	0.99
3257.06	0.988
3265.89	0.99
3274.71	0.9901
3283.54	0.99
3292.36	0.99
3301.19	0.99
3310.01	0.99
3318.84	0.99
3327.67	0.9918
3336.49	0.988
3345.32	0.988
3354.14	0.99
3362.97	0.99
3371.8	0.992
3380.62	0.9927
3389.45	0.998
3398.27	0.9984
3407.1	1
3415.93	1
3424.75	1
3433.58	1.001
3442.4	1.001
3451.23	1.001
3460.05	1.003
3468.88	1.003
3477.71	1.003
3486.53	1.003
3495.36	1.001
3504.18	1.001
3513.01	1.0013
3521.84	1.001
3530.66	1.001
3539.49	1
3548.31	1
3557.14	1.001
3565.96	1.001
3574.79	1.001
3583.62	1.0001
3592.44	1
3601.27	1
3610.09	0.998
3618.92	0.998
3627.75	0.998
3636.57	0.998
3645.4	0.996
3654.22	0.996
3663.05	0.996
3671.88	0.994
3680.7	0.994
3689.53	0.992
3698.35	0.99
3707.18	0.988
3716	0.986
3724.83	0.984
3733.66	0.982
3742.48	0.98
3751.31	0.9792
3760.13	0.986
3768.96	0.99
3777.79	0.9897
3786.61	0.9867
3795.44	0.9766
