Infrared Spectrum: Propyl isothiocyanate
Formula: C 4 H 7 N S
CAS: 628-30-8
State: gas
Origin: EPA-IR VAPOR PHASE LIBRARY
1/CM	ABSORBANCE
549.8	0.038372
559.445	0.031222
569.09	0.023542
578.734	0.017792
588.379	0.014472
598.024	0.012392
607.669	0.011042
617.313	0.009802
626.958	0.008852
636.603	0.008542
646.248	0.009062
655.893	0.010242
665.537	0.009922
675.182	0.008602
684.827	0.008732
694.472	0.011652
704.116	0.013872
713.761	0.012752
723.406	0.010402
733.051	0.007772
742.695	0.005352
752.34	0.004822
761.985	0.005322
771.63	0.007422
781.275	0.015042
790.919	0.025432
800.564	0.025612
810.209	0.016902
819.854	0.009222
829.498	0.006802
839.143	0.007952
848.788	0.010532
858.433	0.011592
868.078	0.011382
877.722	0.011432
887.367	0.013212
897.012	0.013742
906.657	0.012052
916.301	0.010052
925.946	0.008722
935.591	0.007652
945.236	0.006402
954.88	0.005312
964.525	0.004552
974.17	0.003892
983.815	0.003682
993.46	0.003662
1003.1	0.004642
1012.75	0.005602
1022.39	0.006742
1032.04	0.006972
1041.68	0.007522
1051.33	0.009192
1060.97	0.010852
1070.62	0.012932
1080.26	0.013612
1089.91	0.012882
1099.55	0.011682
1109.2	0.011432
1118.84	0.011402
1128.49	0.010142
1138.13	0.008172
1147.78	0.007952
1157.42	0.008152
1167.07	0.008412
1176.71	0.008702
1186.36	0.008752
1196	0.009212
1205.64	0.008982
1215.29	0.008702
1224.93	0.008112
1234.58	0.008632
1244.22	0.010352
1253.87	0.011442
1263.51	0.013262
1273.16	0.015602
1282.8	0.022422
1292.45	0.035582
1302.09	0.039722
1311.74	0.036212
1321.38	0.040612
1331.03	0.082662
1340.67	0.134712
1350.32	0.152402
1359.96	0.110822
1369.61	0.065002
1379.25	0.041622
1388.9	0.034882
1398.54	0.030902
1408.18	0.016952
1417.83	0.014652
1427.47	0.015202
1437.12	0.021152
1446.76	0.049452
1456.41	0.069892
1466.05	0.072352
1475.7	0.035922
1485.34	0.018842
1494.99	0.011442
1504.63	0.008702
1514.28	0.007112
1523.92	0.005802
1533.57	0.004742
1543.21	0.003962
1552.86	0.003332
1562.5	0.003022
1572.15	0.002932
1581.79	0.002962
1591.44	0.003082
1601.08	0.003072
1610.73	0.003062
1620.37	0.003112
1630.01	0.003232
1639.66	0.003352
1649.3	0.003342
1658.95	0.003162
1668.59	0.002902
1678.24	0.002782
1687.88	0.002732
1697.53	0.002592
1707.17	0.002522
1716.82	0.002412
1726.46	0.002162
1736.11	0.002102
1745.75	0.002142
1755.4	0.002232
1765.04	0.002352
1774.69	0.002542
1784.33	0.002702
1793.98	0.002842
1803.62	0.002952
1813.27	0.003132
1822.91	0.003372
1832.55	0.003782
1842.2	0.004482
1851.84	0.005472
1861.49	0.006932
1871.13	0.008782
1880.78	0.010962
1890.42	0.013762
1900.07	0.017572
1909.71	0.022542
1919.36	0.028872
1929	0.036852
1938.65	0.046632
1948.29	0.058472
1957.94	0.072782
1967.58	0.091302
1977.23	0.116992
1986.87	0.156302
1996.52	0.217702
2006.16	0.307302
2015.81	0.424282
2025.45	0.569512
2035.1	0.750382
2044.74	0.945402
2054.38	1.09413
2064.03	1.12844
2073.67	1.01729
2083.32	0.792902
2092.96	0.560002
2102.61	0.394482
2112.25	0.297122
2121.9	0.260522
2131.54	0.244462
2141.19	0.234172
2150.83	0.225272
2160.48	0.215002
2170.12	0.191092
2179.77	0.160592
2189.41	0.136922
2199.06	0.122102
2208.7	0.108042
2218.35	0.092212
2227.99	0.076872
2237.64	0.062672
2247.28	0.049232
2256.92	0.037322
2266.57	0.027522
2276.21	0.020782
2285.86	0.016432
2295.5	0.013182
2305.15	0.010592
2314.79	0.008532
2324.44	0.006992
2334.08	0.006052
2343.73	0.005282
2353.37	0.004692
2363.02	0.004272
2372.66	0.003952
2382.31	0.003632
2391.95	0.003442
2401.6	0.003232
2411.24	0.003142
2420.89	0.003192
2430.53	0.003182
2440.18	0.003112
2449.82	0.003162
2459.47	0.003252
2469.11	0.003342
2478.75	0.003282
2488.4	0.003392
2498.04	0.003492
2507.69	0.003672
2517.33	0.003862
2526.98	0.003942
2536.62	0.004142
2546.27	0.004502
2555.91	0.004892
2565.56	0.005422
2575.2	0.006162
2584.85	0.006772
2594.49	0.006132
2604.14	0.004782
2613.78	0.003702
2623.43	0.003192
2633.07	0.003052
2642.72	0.003352
2652.36	0.003842
2662.01	0.004852
2671.65	0.006292
2681.29	0.007682
2690.94	0.008882
2700.58	0.010132
2710.23	0.012492
2719.87	0.015122
2729.52	0.017172
2739.16	0.017272
2748.81	0.016082
2758.45	0.014552
2768.1	0.013432
2777.74	0.012302
2787.39	0.011222
2797.03	0.010612
2806.68	0.010572
2816.32	0.010802
2825.97	0.011542
2835.61	0.012982
2845.26	0.015442
2854.9	0.020822
2864.55	0.033242
2874.19	0.053372
2883.84	0.075252
2893.48	0.078492
2903.12	0.065382
2912.77	0.056692
2922.41	0.066252
2932.06	0.098742
2941.7	0.145962
2951.35	0.164222
2960.99	0.153492
2970.64	0.142202
2980.28	0.138722
2989.93	0.112632
2999.57	0.059642
3009.22	0.031982
3018.86	0.020592
3028.51	0.015582
3038.15	0.012002
3047.8	0.008792
3057.44	0.006602
3067.09	0.005442
3076.73	0.005002
3086.38	0.004772
3096.02	0.004582
3105.67	0.004502
3115.31	0.004062
3124.95	0.003652
3134.6	0.003202
3144.24	0.002632
3153.89	0.002312
3163.53	0.002142
3173.18	0.001982
3182.82	0.001882
3192.47	0.001602
3202.11	0.001381
3211.76	0.0011601
3221.4	0.0008932
3231.05	0.0007939
3240.69	0.0006604
3250.34	0.0007437
3259.98	0.0006423
3269.63	0.0005794
3279.27	0.000314
3288.92	0.000249
3298.56	0.000255
3308.21	9.4e-05
3317.85	0.00017
3327.49	0
3337.14	0.000139
3346.78	5.6e-05
3356.43	0.000138
3366.07	0.000202
3375.72	0.000288
3385.36	0.000325
3395.01	0.0004125
3404.65	0.000228
3414.3	0.0004192
3423.94	0.000326
3433.59	0.000263
3443.23	0.000188
3452.88	0.000219
3462.52	0.0003531
3472.17	0.000234
3481.81	0.000163
3491.46	0.000186
3501.1	0.000137
3510.75	0.000261
3520.39	0.000162
3530.04	0.000187
3539.68	0.000235
3549.32	0.000207
3558.97	0.000167
3568.61	8.3e-05
3578.26	0.000171
3587.9	0.000296
3597.55	0.000341
3607.19	0.0003709
3616.84	0.000338
3626.48	0.000205
3636.13	0.0004113
3645.77	0.000169
3655.42	0.000225
3665.06	0.000305
3674.71	0.0004045
3684.35	0.0004769
3694	0.0003861
3703.64	0.0004266
3713.29	0.00050605
3722.93	0.00046617
3732.58	0.00051168
3742.22	0.0005203
3751.86	0.00050282
3761.51	0.00050946
3771.15	0.0006598
3780.8	0.00050473
3790.44	0.0006272
3800.09	0.0007772
3809.73	0.0008345
3819.38	0.0008227
3829.02	0.0008644
3838.67	0.0007837
3848.31	0.0008048
3857.96	0.0008534
3867.6	0.0009218
3877.25	0.0007691
3886.89	0.0008515
3896.54	0.0009931
3906.18	0.0009428
3915.83	0.001214
3925.47	0.0013115
3935.12	0.001562
3944.76	0.001812
3954.41	0.001812
3964.05	0.002022
3973.69	0.002642
3983.34	0.002782
3992.98	0.003322
