Infrared Spectrum: Butanoic acid
Formula: C 4 H 8 O 2
CAS: 107-92-6
State: gas
Origin: Sadtler Research Labs Under US-EPA Contract
1/CM	ABSORBANCE
450	0.033238
462	0.0325597
474	0.0366297
486	0.0416388
498	0.046335
510	0.0504571
522	0.0519703
534	0.0637627
546	0.0776424
558	0.0812949
570	0.0820254
582	0.0916263
594	0.100392
606	0.100184
618	0.101853
630	0.101697
642	0.0752943
654	0.0450827
666	0.0324032
678	0.0289072
690	0.0281767
702	0.0249937
714	0.021863
726	0.0199324
738	0.020976
750	0.0260895
762	0.0243154
774	0.014871
786	0.00406996
798	0.000730506
810	0.000782685
822	0.00130448
834	0.00391342
846	0.00699199
858	0.00928786
870	0.00986183
882	0.00850518
894	0.0101749
906	0.0133056
918	0.011949
930	0.00688763
942	0.00240023
954	0.000939222
966	0.00109576
978	0.00161755
990	0.00360035
1002	0.00787903
1014	0.0168538
1026	0.0332902
1038	0.0518137
1050	0.0741464
1062	0.112707
1074	0.159824
1086	0.193845
1098	0.161964
1110	0.128673
1122	0.141927
1134	0.226039
1146	0.28975
1158	0.266165
1170	0.177878
1182	0.123612
1194	0.076077
1206	0.0506136
1218	0.0405953
1230	0.0373602
1242	0.0349599
1254	0.035847
1266	0.0432042
1278	0.045187
1290	0.0408562
1302	0.0342816
1314	0.0308378
1326	0.0306813
1338	0.0357948
1350	0.0444043
1362	0.0629279
1374	0.0823906
1386	0.0875564
1398	0.0657455
1410	0.0405953
1422	0.0313074
1434	0.0314118
1446	0.0345947
1458	0.0375167
1470	0.033238
1482	0.0232718
1494	0.0117925
1506	0.00756596
1518	0.0042265
1530	0.00172191
1542	0.00219152
1554	0.00130448
1566	0.000939222
1578	0.0022437
1590	0.00140883
1602	0.00177409
1614	0.00146101
1626	0.00172191
1638	0.00307856
1650	0.00135665
1662	0.00313074
1674	0.00328728
1686	0.00667891
1698	0.00965312
1710	0.0178974
1722	0.0363166
1734	0.0673109
1746	0.124708
1758	0.26173
1770	0.457245
1782	0.52179
1794	0.418997
1806	0.188523
1818	0.0653803
1830	0.023898
1842	0.0104358
1854	0.00573969
1866	0.0032351
1878	0.00276549
1890	0.00276549
1902	0.00260895
1914	0.00208716
1926	0.00203498
1938	0.00166973
1950	0.00135665
1962	0.000939222
1974	0.00052179
1986	0.000939222
1998	0.000417432
2010	0.000626148
2022	0.000469611
2034	0.000626148
2046	0
2058	0.000156537
2070	0.000104358
2082	0.000156537
2094	0.000104358
2106	0.000156537
2118	0.000208716
2130	0.000156537
2142	0.000208716
2154	0.000678327
2166	0.00114794
2178	0.0012523
2190	0.000730506
2202	0.00114794
2214	0.0012523
2226	0.00109576
2238	0.00120012
2250	0.000678327
2262	0.000782685
2274	0.000730506
2286	0.000782685
2298	0.00120012
2310	0.00130448
2322	0.00120012
2334	0.000887043
2346	0.0012523
2358	0.0012523
2370	0.00156537
2382	0.00109576
2394	0.000834864
2406	0.00130448
2418	0.00130448
2430	0.0012523
2442	0.00130448
2454	0.000834864
2466	0.000834864
2478	0.000939222
2490	0.000730506
2502	0.000730506
2514	0.000782685
2526	0.000313074
2538	0.000260895
2550	0.000887043
2562	0.000417432
2574	0.000834864
2586	0.00120012
2598	0.000939222
2610	0.00151319
2622	0.00146101
2634	0.00156537
2646	0.00203498
2658	0.00240023
2670	0.00260895
2682	0.00255677
2694	0.00245241
2706	0.00229588
2718	0.00313074
2730	0.00271331
2742	0.00365253
2754	0.00427868
2766	0.00370471
2778	0.00417432
2790	0.00427868
2802	0.00480047
2814	0.00568751
2826	0.00725288
2838	0.00923568
2850	0.0124186
2862	0.0192019
2874	0.0357948
2886	0.0580752
2898	0.0605798
2910	0.0528051
2922	0.061519
2934	0.0855214
2946	0.112654
2958	0.132639
2970	0.164259
2982	0.162381
2994	0.110515
3006	0.0505093
3018	0.0243676
3030	0.0136187
3042	0.00996619
3054	0.00803557
3066	0.00704417
3078	0.00725288
3090	0.00605276
3102	0.00568751
3114	0.00469611
3126	0.00485265
3138	0.00490483
3150	0.00469611
3162	0.00474829
3174	0.00459175
3186	0.00406996
3198	0.00391342
3210	0.00370471
3222	0.0032351
3234	0.00333946
3246	0.00281767
3258	0.00292202
3270	0.00187844
3282	0.00182627
3294	0.00177409
3306	0.00208716
3318	0.00276549
3330	0.00140883
3342	0.00140883
3354	0.00130448
3366	0.00140883
3378	0.00130448
3390	0.00140883
3402	0.00135665
3414	0.000730506
3426	0.000991401
3438	0.000782685
3450	0.00052179
3462	0.00114794
3474	0.00140883
3486	0.000939222
3498	0.00114794
3510	0.0022437
3522	0.00433086
3534	0.00725288
3546	0.0104358
3558	0.033238
3570	0.137544
3582	0.153667
3594	0.0805122
3606	0.0138274
3618	0.00307856
3630	0.00109576
3642	0.00151319
3654	0.000730506
3666	0.000939222
3678	0.00203498
3690	0.000678327
3702	0.00135665
3714	0.00151319
3726	0.00166973
3738	0.00276549
3750	0.000887043
3762	0.00255677
3774	0.00302638
3786	0.00219152
3798	0.00255677
3810	0.00313074
3822	0.00360035
3834	0.00286985
3846	0.00339164
3858	0.00255677
3870	0.00281767
3882	0.00307856
3894	0.00448739
3906	0.00260895
3918	0.00229588
3930	0.00266113
3942	0.00250459
3954	0.00328728
3966	0.00370471
