Infrared Spectrum: BUTANOIC ACID
Formula: C4 H8 O2
CAS: 107-92-6
State: SOLUTION (10% IN CCl4 FOR 3800-1300, 10% IN CS2 FOR 1300-650, 10% IN CCl4 FOR 650-250 CM^-^1) VERSUS SOLVENT
Class: COBLENTZ III
Instrument: PERKIN-ELMER 521 (GRATING)
Instrument parameters: FILTERS AT 3150, 2500, 2000, 1150, 700, 410; GRATING CHANGES AT 2000, 630 CM^-^1
Sampling: TRANSMISSION
Path length: 0.011, 0.010, AND 0.011 CM (CsBr CELL)
Resolution: 4
Origin: DOW CORNING CORP.
1/CM	TRANSMITTANCE
254.069	0.745
263.9	0.743
273.73	0.74
283.561	0.737
293.392	0.744
303.223	0.79
313.053	0.813
322.884	0.81
332.715	0.801
342.545	0.782
352.376	0.752
362.207	0.725
372.038	0.735
381.868	0.77
391.699	0.801
401.53	0.806
411.36	0.806
421.191	0.805
431.022	0.791
440.852	0.782
450.683	0.76
460.514	0.7
470.345	0.655
480.175	0.576
490.006	0.547
499.837	0.615
509.667	0.678
519.498	0.736
529.329	0.768
539.16	0.78
548.99	0.78
558.821	0.778
568.652	0.767
578.482	0.74
588.313	0.694
598.144	0.654
607.975	0.663
617.805	0.678
627.636	0.692
637.467	0.713
647.297	0.725
657.128	0.723
666.959	0.713
676.79	0.701
686.62	0.716
696.451	0.758
706.282	0.791
716.112	0.799
725.943	0.799
735.774	0.797
745.605	0.779
755.435	0.689
765.266	0.712
775.097	0.623
784.927	0.473
794.758	0.673
804.589	0.719
814.419	0.717
824.25	0.702
834.081	0.686
843.912	0.661
853.742	0.623
863.573	0.547
873.404	0.494
883.234	0.426
893.065	0.383
902.896	0.342
912.727	0.267
922.557	0.174
932.388	0.129
942.219	0.133
952.049	0.178
961.88	0.299
971.711	0.444
981.542	0.572
991.372	0.659
1001.2	0.713
1011.03	0.759
1020.86	0.772
1030.7	0.766
1040.53	0.713
1050.36	0.702
1060.19	0.721
1070.02	0.688
1079.85	0.592
1089.68	0.525
1099.51	0.477
1109.34	0.5451
1119.17	0.751
1129	0.774
1138.83	0.75
1148.66	0.728
1158.49	0.709
1168.33	0.643
1178.16	0.579
1187.99	0.509
1197.82	0.4
1207.65	0.232
1217.48	0.076
1227.31	0.076
1237.14	0.118
1246.97	0.2201
1256.8	0.301
1266.63	0.213
1276.46	0.075
1286.29	0.055
1296.12	0.091
1305.95	0.131
1315.79	0.157
1325.62	0.4091
1335.45	0.418
1345.28	0.407
1355.11	0.509
1364.94	0.579
1374.77	0.56
1384.6	0.404
1394.43	0.455
1404.26	0.3049
1414.09	0.055
1423.92	0.098
1433.75	0.133
1443.58	0.201
1453.42	0.258
1463.25	0.2
1473.08	0.2822
1482.91	0.592
1492.74	0.666
1502.57	0.698
1512.4	0.719
1522.23	0.731
1532.06	0.751
1541.89	0.754
1551.72	0.745
1561.55	0.733
1571.38	0.723
1581.21	0.717
1591.05	0.711
1600.88	0.694
1610.71	0.673
1620.54	0.654
1630.37	0.622
1640.2	0.579
1650.03	0.526
1659.86	0.47
1669.69	0.389
1679.52	0.3069
1689.35	0.1529
1699.18	0.014
1709.01	0.005
1718.84	0.006
1728.68	0.016
1738.51	0.12
1748.34	0.229
1758.17	0.318
1768	0.384
1777.83	0.481
1787.66	0.552
1797.49	0.576
1807.32	0.59
1817.15	0.596
1826.98	0.631
1836.81	0.647
1846.64	0.661
1856.47	0.669
1866.31	0.68
1876.14	0.692
1885.97	0.698
1895.8	0.706
1905.63	0.708
1915.46	0.716
1925.29	0.717
1935.12	0.724
1944.95	0.725
1954.78	0.731
1964.61	0.732
1974.44	0.739
1984.27	0.74
1994.1	0.745
2003.94	0.76
2013.77	0.775
2023.6	0.779
2033.43	0.779
2043.26	0.78
2053.09	0.784
2062.92	0.784
2072.75	0.784
2082.58	0.782
2092.41	0.779
2102.24	0.778
2112.07	0.774
2121.9	0.77
2131.73	0.768
2141.57	0.766
2151.4	0.764
2161.23	0.767
2171.06	0.767
2180.89	0.768
2190.72	0.7641
2200.55	0.7629
2210.38	0.7601
2220.21	0.7562
2230.04	0.7511
2239.87	0.748
2249.7	0.745
2259.53	0.745
2269.36	0.744
2279.2	0.741
2289.03	0.739
2298.86	0.737
2308.69	0.735
2318.52	0.7284
2328.35	0.7194
2338.18	0.709
2348.01	0.7001
2357.84	0.696
2367.67	0.69
2377.5	0.684
2387.33	0.6761
2397.16	0.6663
2406.99	0.6508
2416.83	0.641
2426.66	0.631
2436.49	0.6127
2446.32	0.6021
2456.15	0.588
2465.98	0.5725
2475.81	0.5614
2485.64	0.5346
2495.47	0.51
2505.3	0.476
2515.13	0.4516
2524.96	0.4125
2534.79	0.3999
2544.62	0.3802
2554.46	0.3526
2564.29	0.3276
2574.12	0.3193
2583.95	0.317
2593.78	0.313
2603.61	0.2954
2613.44	0.2703
2623.27	0.2678
2633.1	0.271
2642.93	0.2606
2652.76	0.2434
2662.59	0.2294
2672.42	0.2306
2682.25	0.232
2692.09	0.236
2701.92	0.2408
2711.75	0.2448
2721.58	0.248
2731.41	0.25
2741.24	0.2472
2751.07	0.244
2760.9	0.2466
2770.73	0.247
2780.56	0.2402
2790.39	0.2352
2800.22	0.2257
2810.05	0.2057
2819.88	0.1874
2829.72	0.1701
2839.55	0.1572
2849.38	0.1349
2859.21	0.1192
2869.04	0.0852
2878.87	0.0407
2888.7	0.0335
2898.53	0.0323
2908.36	0.0283
2918.19	0.0253
2928.02	0.019
2937.85	0.009
2947.68	0.0127
2957.51	0.013
2967.34	0.0031
2977.18	0
2987.01	0.0177
2996.84	0.0356
3006.67	0.0557
3016.5	0.0597
3026.33	0.057
3036.16	0.0553
3045.99	0.0567
3055.82	0.061
3065.65	0.0671
3075.48	0.073
3085.31	0.0744
3095.14	0.0784
3104.97	0.0807
3114.81	0.0861
3124.64	0.0974
3134.47	0.1074
3144.3	0.1211
3154.13	0.1344
3163.96	0.153
3173.79	0.16
3183.62	0.1787
3193.45	0.1977
3203.28	0.215
3213.11	0.2303
3222.94	0.2543
3232.77	0.2793
3242.6	0.3029
3252.44	0.3283
3262.27	0.3563
3272.1	0.3781
3281.93	0.4095
3291.76	0.4365
3301.59	0.4681
3311.42	0.4967
3321.25	0.5224
3331.08	0.5411
3340.91	0.56
3350.74	0.5756
3360.57	0.5892
3370.4	0.6181
3380.23	0.6447
3390.07	0.6684
3399.9	0.6895
3409.73	0.708
3419.56	0.7209
3429.39	0.735
3439.22	0.7506
3449.05	0.7652
3458.88	0.7712
3468.71	0.782
3478.54	0.7892
3488.37	0.793
3498.2	0.7982
3508.03	0.797
3517.86	0.7918
3527.7	0.7824
3537.53	0.7847
3547.36	0.8185
3557.19	0.8366
3567.02	0.8446
3576.85	0.85
3586.68	0.853
3596.51	0.8576
3606.34	0.864
3616.17	0.865
3626	0.869
3635.83	0.868
3645.66	0.87
3655.49	0.865
3665.33	0.858
3675.16	0.8575
3684.99	0.868
3694.82	0.8746
3704.65	0.886
3714.48	0.8891
3724.31	0.892
3734.14	0.895
3743.97	0.8925
3753.8	0.891
3763.63	0.893
3773.46	0.892
3783.29	0.892
3793.12	0.893
