Infrared Spectrum: 2-Chloropropionamide
Formula: C 3 H 6 Cl N O
CAS: 27816-36-0
State: gas
Origin: EPA-IR VAPOR PHASE LIBRARY
1/CM	ABSORBANCE
549.9	0.00743
559.547	0.00754
569.193	0.0069
578.84	0.00578
588.486	0.00449
598.133	0.00379
607.779	0.00365
617.426	0.00398
627.072	0.00457
636.719	0.00579
646.365	0.00715
656.012	0.00817
665.658	0.0086
675.305	0.00885
684.951	0.01002
694.598	0.01118
704.245	0.01103
713.891	0.01093
723.538	0.01072
733.184	0.01048
742.831	0.0101
752.477	0.00935
762.124	0.00921
771.77	0.00916
781.417	0.00857
791.063	0.00784
800.71	0.00713
810.356	0.00681
820.003	0.00658
829.649	0.00656
839.296	0.00721
848.943	0.0081
858.589	0.00879
868.236	0.00879
877.882	0.00834
887.529	0.00788
897.175	0.00791
906.822	0.00815
916.468	0.00796
926.115	0.00738
935.761	0.00664
945.408	0.00639
955.054	0.00705
964.701	0.00913
974.347	0.01221
983.994	0.01309
993.64	0.01222
1003.29	0.00818
1012.93	0.00578
1022.58	0.0048
1032.23	0.00465
1041.87	0.00528
1051.52	0.00682
1061.17	0.00943
1070.81	0.0103
1080.46	0.00858
1090.11	0.00557
1099.75	0.00352
1109.4	0.00274
1119.05	0.0023546
1128.69	0.0018763
1138.34	0.00147561
1147.99	0.001225
1157.63	0.0013112
1167.28	0.00142994
1176.92	0.0015627
1186.57	0.002149
1196.22	0.003
1205.86	0.00556
1215.51	0.00902
1225.16	0.01416
1234.8	0.01628
1244.45	0.01477
1254.1	0.01003
1263.74	0.00818
1273.39	0.00818
1283.04	0.00774
1292.68	0.00818
1302.33	0.00851
1311.98	0.00952
1321.62	0.01199
1331.27	0.01678
1340.92	0.02486
1350.56	0.03205
1360.21	0.03345
1369.86	0.02981
1379.5	0.02081
1389.15	0.01636
1398.79	0.00928
1408.44	0.00457
1418.09	0.00328
1427.73	0.00372
1437.38	0.00563
1447.03	0.00732
1456.67	0.00815
1466.32	0.00585
1475.97	0.00397
1485.61	0.00251
1495.26	0.0020638
1504.91	0.001897
1514.55	0.0021248
1524.2	0.00247
1533.85	0.00342
1543.49	0.00587
1553.14	0.01223
1562.79	0.02539
1572.43	0.03851
1582.08	0.04479
1591.73	0.03863
1601.37	0.02625
1611.02	0.01624
1620.67	0.01083
1630.31	0.00788
1639.96	0.00598
1649.6	0.00503
1659.25	0.00519
1668.9	0.00655
1678.54	0.00961
1688.19	0.01486
1697.84	0.02476
1707.48	0.04909
1717.13	0.09605
1726.78	0.12875
1736.42	0.13017
1746.07	0.0871
1755.72	0.04218
1765.36	0.03019
1775.01	0.01848
1784.66	0.01093
1794.3	0.00517
1803.95	0.00313
1813.6	0.0022691
1823.24	0.0018851
1832.89	0.0016479
1842.54	0.0015525
1852.18	0.001499
1861.83	0.00146036
1871.47	0.00139105
1881.12	0.0013436
1890.77	0.001345
1900.41	0.0013597
1910.06	0.00127
1919.71	0.001198
1929.35	0.0012
1939	0.001254
1948.65	0.001156
1958.29	0.00116
1967.94	0.001124
1977.59	0.001048
1987.23	0.000967
1996.88	0.00095
2006.53	0.000971
2016.17	0.000987
2025.82	0.000976
2035.47	0.000973
2045.11	0.000942
2054.76	0.000945
2064.41	0.00094
2074.05	0.0009
2083.7	0.000953
2093.35	0.000953
2102.99	0.000923
2112.64	0.000919
2122.28	0.000953
2131.93	0.000943
2141.58	0.000943
2151.22	0.000925
2160.87	0.000944
2170.52	0.000899
2180.16	0.000943
2189.81	0.000973
2199.46	0.000938
2209.1	0.000978
2218.75	0.000928
2228.4	0.00093
2238.04	0.000961
2247.69	0.000901
2257.34	0.000884
2266.98	0.000889
2276.63	0.000911
2286.28	0.000862
2295.92	0.000871
2305.57	0.000882
2315.22	0.000855
2324.86	0.000908
2334.51	0.000899
2344.16	0.000962
2353.8	0.000964
2363.45	0.000996
2373.09	0.000957
2382.74	0.000969
2392.39	0.00102
2402.03	0.001022
2411.68	0.001002
2421.33	0.00106
2430.97	0.001095
2440.62	0.001128
2450.27	0.00113
2459.91	0.001077
2469.56	0.000988
2479.21	0.000934
2488.85	0.000905
2498.5	0.000857
2508.15	0.000896
2517.79	0.000844
2527.44	0.000942
2537.09	0.000912
2546.73	0.000921
2556.38	0.000875
2566.03	0.000888
2575.67	0.000818
2585.32	0.000835
2594.96	0.000813
2604.61	0.000816
2614.26	0.000845
2623.9	0.000864
2633.55	0.000855
2643.2	0.000883
2652.84	0.000942
2662.49	0.000874
2672.14	0.000873
2681.78	0.000966
2691.43	0.000822
2701.08	0.000804
2710.72	0.000907
2720.37	0.000806
2730.02	0.000825
2739.66	0.000805
2749.31	0.000874
2758.96	0.000848
2768.6	0.000894
2778.25	0.000898
2787.9	0.000917
2797.54	0.001042
2807.19	0.00125
2816.84	0.0013778
2826.48	0.00145328
2836.13	0.0015003
2845.77	0.0013417
2855.42	0.00144403
2865.07	0.0017044
2874.71	0.0021309
2884.36	0.00241
2894.01	0.00251
2903.65	0.00247
2913.3	0.00243
2922.95	0.00311
2932.59	0.00465
2942.24	0.00599
2951.89	0.0062
2961.53	0.00563
2971.18	0.00501
2980.83	0.00668
2990.47	0.00969
3000.12	0.01074
3009.77	0.00832
3019.41	0.00443
3029.06	0.0021325
3038.71	0.0013165
3048.35	0.00095
3058	0.000821
3067.64	0.000642
3077.29	0.000786
3086.94	0.000746
3096.58	0.000673
3106.23	0.000563
3115.88	0.000528
3125.52	0.000619
3135.17	0.000538
3144.82	0.000525
3154.46	0.000606
3164.11	0.000494
3173.76	0.000517
3183.4	0.00039
3193.05	0.00032
3202.7	0.00024
3212.34	0.000451
3221.99	0.000403
3231.64	0.0003
3241.28	0.0003
3250.93	0.00018
3260.58	0.00014
3270.22	0.00017
3279.87	0.00021
3289.52	0.0002
3299.16	0.000422
3308.81	0.000448
3318.45	0.000443
3328.1	0.00026
3337.75	0.000454
3347.39	0.00046
3357.04	0.00037
3366.69	0.000649
3376.33	0.001129
3385.98	0.0017168
3395.63	0.00347
3405.27	0.00642
3414.92	0.01086
3424.57	0.01527
3434.21	0.01514
3443.86	0.01184
3453.51	0.0063
3463.15	0.00319
3472.8	0.0023755
3482.45	0.00256
3492.09	0.00335
3501.74	0.0047
3511.39	0.00723
3521.03	0.01129
3530.68	0.01706
3540.33	0.02375
3549.97	0.0241
3559.62	0.01795
3569.26	0.0086
3578.91	0.00255
3588.56	0.0013061
3598.2	0.00088
3607.85	0.000821
3617.5	0.00056
3627.14	0.000527
3636.79	0.00064
3646.44	0.000598
3656.08	0.00066
3665.73	0.000566
3675.38	0.000634
3685.02	0.000637
3694.67	0.000567
3704.32	0.000601
3713.96	0.000768
3723.61	0.000669
3733.26	0.000643
3742.9	0.00061
3752.55	0.000736
3762.2	0.000719
3771.84	0.000846
3781.49	0.000767
3791.13	0.000733
3800.78	0.000715
3810.43	0.000788
3820.07	0.000783
3829.72	0.000806
3839.37	0.000714
3849.01	0.000724
3858.66	0.000675
3868.31	0.000791
3877.95	0.000839
3887.6	0.000739
3897.25	0.000808
3906.89	0.000856
3916.54	0.00075
3926.19	0.000746
3935.83	0.000743
3945.48	0.00095
3955.13	0.000969
3964.77	0.000861
3974.42	0.000775
3984.07	0.000956
3993.71	0.000855
