Infrared Spectrum: 5-AMINO-1,2,4-THIADIAZOLE
Formula: C2 H3 N3 S
CAS: 7552-07-0
State: SOLID (KBr PELLET)
Class: COBLENTZ
Instrument: Not specified, most likely a prism, grating, or hybrid spectrometer.
Sampling: TRANSMISSION
Resolution: 4
Origin: TENNESSEE EASTMAN COMPANY, RESEARCH LABORATORIES
MICROMETERS	TRANSMITTANCE
2.055	0.933
2.09601	0.938
2.13703	0.943
2.17804	0.95
2.21906	0.953
2.26007	0.957
2.30109	0.959
2.3421	0.959
2.38312	0.962
2.42413	0.965
2.46515	0.965
2.50616	0.964
2.54718	0.964
2.58819	0.964
2.62921	0.965
2.67022	0.967
2.71124	0.965
2.75225	0.962
2.79327	0.938
2.83428	0.895
2.8753	0.846
2.91631	0.766
2.95733	0.542
2.99834	0.331
3.03935	0.479
3.08037	0.377
3.12138	0.346
3.1624	0.472
3.20341	0.401
3.24443	0.255
3.28544	0.215
3.32646	0.419
3.36747	0.552
3.40849	0.558
3.4495	0.581
3.49052	0.697
3.53153	0.774
3.57255	0.82
3.61356	0.844
3.65458	0.856
3.69559	0.841
3.73661	0.791
3.77762	0.824
3.81864	0.873
3.85965	0.911
3.90067	0.923
3.94168	0.931
3.9827	0.936
4.02371	0.943
4.06472	0.948
4.10574	0.95
4.14675	0.95
4.18777	0.95
4.22878	0.95
4.2698	0.947
4.31081	0.926
4.35183	0.923
4.39284	0.931
4.43386	0.953
4.47487	0.953
4.51589	0.952
4.5569	0.95
4.59792	0.953
4.63893	0.95
4.67995	0.948
4.72096	0.953
4.76198	0.953
4.80299	0.953
4.84401	0.952
4.88502	0.952
4.92604	0.953
4.96705	0.953
5.00806	0.959
5.04908	0.965
5.09009	0.967
5.13111	0.967
5.17212	0.969
5.21314	0.969
5.25415	0.969
5.29517	0.97
5.33618	0.965
5.3772	0.957
5.41821	0.967
5.45923	0.953
5.50024	0.962
5.54126	0.959
5.58227	0.964
5.62329	0.96
5.6643	0.95
5.70532	0.94
5.74633	0.919
5.78735	0.911
5.82836	0.909
5.86938	0.907
5.91039	0.902
5.9514	0.899
5.99242	0.866
6.03343	0.764
6.07445	0.515
6.11546	0.697
6.15648	0.337
6.19749	0.392
6.23851	0.605
6.27952	0.803
6.32054	0.831
6.36155	0.836
6.40257	0.812
6.44358	0.585
6.4846	0.168
6.52561	0.288
6.56663	0.575
6.60764	0.68
6.64866	0.848
6.68967	0.798
6.73069	0.308
6.7717	0.197
6.81272	0.088
6.85373	0.187
6.89475	0.549
6.93576	0.668
6.97677	0.737
7.01779	0.783
7.0588	0.808
7.09982	0.819
7.14083	0.829
7.18185	0.831
7.22286	0.832
7.26388	0.834
7.30489	0.836
7.34591	0.841
7.38692	0.849
7.42794	0.858
7.46895	0.86
7.50997	0.863
7.55098	0.861
7.592	0.834
7.63301	0.771
7.67403	0.762
7.71504	0.767
7.75606	0.733
7.79707	0.542
7.83809	0.556
7.8791	0.679
7.92011	0.737
7.96113	0.494
8.00214	0.389
8.04316	0.595
8.08417	0.216
8.12519	0.302
8.1662	0.558
8.20722	0.677
8.24823	0.718
8.28925	0.749
8.33026	0.766
8.37128	0.776
8.41229	0.786
8.45331	0.793
8.49432	0.798
8.53534	0.8
8.57635	0.802
8.61737	0.803
8.65838	0.805
8.6994	0.805
8.74041	0.805
8.78143	0.807
8.82244	0.805
8.86346	0.802
8.90447	0.8
8.94548	0.8
8.9865	0.8
9.02751	0.8
9.06853	0.791
9.10954	0.79
9.15056	0.783
9.19157	0.769
9.23259	0.73
9.2736	0.672
9.31462	0.573
9.35563	0.52
9.39665	0.58
9.43766	0.699
9.47868	0.796
9.51969	0.836
9.56071	0.863
9.60172	0.868
9.64274	0.873
9.68375	0.88
9.72477	0.883
9.76578	0.887
9.8068	0.89
9.84781	0.894
9.88882	0.899
9.92984	0.901
9.97085	0.906
10.0119	0.914
10.0529	0.916
10.0939	0.918
10.1349	0.919
10.1759	0.923
10.2169	0.926
10.258	0.928
10.299	0.93
10.34	0.931
10.381	0.933
10.422	0.933
10.463	0.933
10.504	0.935
10.5451	0.936
10.5861	0.923
10.6271	0.776
10.6681	0.802
10.7091	0.892
10.7501	0.928
10.7912	0.899
10.8322	0.807
10.8732	0.916
10.9142	0.938
10.9552	0.878
10.9962	0.926
11.0372	0.965
11.0783	0.976
11.1193	0.976
11.1603	0.943
11.2013	0.73
11.2423	0.609
11.2833	0.638
11.3243	0.742
11.3654	0.832
11.4064	0.887
11.4474	0.916
11.4884	0.933
11.5294	0.945
11.5704	0.95
11.6114	0.955
11.6525	0.959
11.6935	0.965
11.7345	0.967
11.7755	0.97
11.8165	0.97
11.8575	0.97
11.8985	0.97
11.9396	0.97
11.9806	0.97
12.0216	0.97
12.0626	0.97
12.1036	0.97
12.1446	0.97
12.1857	0.97
12.2267	0.97
12.2677	0.969
12.3087	0.967
12.3497	0.965
12.3907	0.965
12.4317	0.965
12.4728	0.965
12.5138	0.967
12.5548	0.964
12.5958	0.964
12.6368	0.962
12.6778	0.962
12.7188	0.962
12.7599	0.962
12.8009	0.959
12.8419	0.957
12.8829	0.957
12.9239	0.953
12.9649	0.947
13.0059	0.936
13.047	0.909
13.088	0.783
13.129	0.656
13.17	0.701
13.211	0.817
13.252	0.837
13.2931	0.841
13.3341	0.776
13.3751	0.595
13.4161	0.489
13.4571	0.617
13.4981	0.725
13.5391	0.764
13.5802	0.776
13.6212	0.784
13.6622	0.788
13.7032	0.788
13.7442	0.79
13.7852	0.788
13.8262	0.788
13.8673	0.788
13.9083	0.786
13.9493	0.788
13.9903	0.786
14.0313	0.788
14.0723	0.795
14.1133	0.796
14.1544	0.802
14.1954	0.803
14.2364	0.807
14.2774	0.803
14.3184	0.798
14.3594	0.791
14.4005	0.784
14.4415	0.783
14.4825	0.781
14.5235	0.776
14.5645	0.774
14.6055	0.779
14.6465	0.788
14.6876	0.786
14.7286	0.79
14.7696	0.79
14.8106	0.786
14.8516	0.786
14.8926	0.784
14.9336	0.776
14.9747	0.766
15.0157	0.754
15.0567	0.752
15.0977	0.75
15.1387	0.749
15.1797	0.744
15.2207	0.733
15.2618	0.725
15.3028	0.708
15.3438	0.697
15.3848	0.682
15.4258	0.672
15.4668	0.662
15.5079	0.646
15.5489	0.639
15.5899	0.621
15.6309	0.614
15.6719	0.604
15.7129	0.598
15.7539	0.592
15.795	0.588
15.836	0.581
15.877	0.575
15.918	0.573
15.959	0.569
16	0.569
