Infrared Spectrum: 1,3-Propanediol
Formula: C 3 H 8 O 2
CAS: 504-63-2
State: gas
Origin: Sadtler Research Labs Under US-EPA Contract
1/CM	ABSORBANCE
450	0.0250888
462	0.0291644
474	0.0295879
486	0.0253005
498	0.0258828
510	0.0322344
522	0.0283705
534	0.0174669
546	0.0118563
558	0.00714555
570	0.00502835
582	0.00804536
594	0.00762192
606	0.00619281
618	0.00375803
630	0.00852173
642	0.00751606
654	0.00576937
666	0.00217013
678	0.00391682
690	0.00603402
702	0.00566351
714	0.00481663
726	0.00455198
738	0.00598109
750	0.00561058
762	0.00778071
774	0.0150321
786	0.0170435
798	0.0205898
810	0.0194782
822	0.0187372
834	0.0152438
846	0.0155614
858	0.0179433
870	0.0212779
882	0.027259
894	0.0354631
906	0.0537769
918	0.0661096
930	0.0776483
942	0.0717731
954	0.0689149
966	0.0688619
978	0.0842116
990	0.0942683
1002	0.0968619
1014	0.118881
1026	0.190654
1038	0.288151
1050	0.41857
1062	0.514533
1074	0.493943
1086	0.297837
1098	0.137036
1110	0.0783893
1122	0.0593345
1134	0.0547826
1146	0.0583818
1158	0.0640982
1170	0.0697617
1182	0.0718789
1194	0.0734139
1206	0.072567
1218	0.0727258
1230	0.0757958
1242	0.0852173
1254	0.0805065
1266	0.0747901
1278	0.0707674
1290	0.0660566
1302	0.0572703
1314	0.0538298
1326	0.0549413
1338	0.0602343
1350	0.0651568
1362	0.0706086
1374	0.0807712
1386	0.0941095
1398	0.103213
1410	0.101096
1422	0.0923629
1434	0.0711908
1446	0.0478487
1458	0.0328166
1470	0.0358336
1482	0.0364688
1494	0.038533
1506	0.017414
1518	0.00836294
1530	0.00661625
1542	0.00238185
1554	0.00502835
1566	0.00481663
1578	0.00418147
1590	0.00592816
1602	0.00539886
1614	0.00449905
1626	0.00296408
1638	0.0015879
1650	0.00232892
1662	0.00259357
1674	0.00206427
1686	0.0005293
1698	0.00121739
1710	0.00275236
1722	0.00301701
1734	0.00132325
1746	0.00296408
1758	0.00254064
1770	0.00227599
1782	0.00248771
1794	0.00137618
1806	0.00238185
1818	0.00291115
1830	0.00285822
1842	0.00344045
1854	0.00333459
1866	0.00375803
1878	0.00359924
1890	0.0037051
1902	0.00381096
1914	0.00365217
1926	0.00359924
1938	0.0037051
1950	0.00354631
1962	0.00359924
1974	0.00354631
1986	0.00396975
1998	0.00396975
2010	0.00396975
2022	0.00396975
2034	0.00439319
2046	0.00428733
2058	0.00460491
2070	0.00434026
2082	0.00375803
2094	0.0037051
2106	0.00328166
2118	0.00328166
2130	0.00322873
2142	0.0031758
2154	0.00254064
2166	0.0021172
2178	0.00217013
2190	0.0021172
2202	0.00259357
2214	0.00195841
2226	0.00201134
2238	0.00201134
2250	0.00190548
2262	0.00169376
2274	0.00190548
2286	0.00195841
2298	0.00179962
2310	0.00079395
2322	0.00026465
2334	0.00026465
2346	0.00026465
2358	0.00026465
2370	0.00026465
2382	0.0026465
2394	0.00338752
2406	0.00338752
2418	0.00386389
2430	0.00333459
2442	0.00301701
2454	0.00291115
2466	0.00291115
2478	0.00269943
2490	0.00227599
2502	0.00291115
2514	0.00243478
2526	0.00296408
2538	0.00243478
2550	0.00301701
2562	0.00296408
2574	0.00296408
2586	0.00301701
2598	0.00359924
2610	0.00396975
2622	0.00407561
2634	0.00455198
2646	0.00502835
2658	0.00640453
2670	0.00756899
2682	0.00947447
2694	0.012121
2706	0.0124386
2718	0.0138147
2730	0.0164612
2742	0.0191077
2754	0.0220718
2766	0.0243478
2778	0.0267826
2790	0.0297996
2802	0.0339281
2814	0.0390623
2826	0.0490661
2838	0.0672211
2850	0.0955916
2862	0.135765
2874	0.182185
2886	0.23485
2898	0.259357
2910	0.270102
2922	0.304136
2934	0.338858
2946	0.361247
2958	0.300113
2970	0.21876
2982	0.12772
2994	0.060499
3006	0.0287939
3018	0.0163024
3030	0.0100567
3042	0.0074102
3054	0.00550472
3066	0.00455198
3078	0.00338752
3090	0.00243478
3102	0.00201134
3114	0.0015879
3126	0.00153497
3138	0.00137618
3150	0.00116446
3162	0.00164083
3174	0.00111153
3186	0.00132325
3198	0.00153497
3210	0.00068809
3222	0.00068809
3234	0.00047637
3246	0.00058223
3258	0.00058223
3270	0.00074102
3282	0.00026465
3294	0.00089981
3306	0.00021172
3318	0.00068809
3330	0.00127032
3342	0.00100567
3354	0.0015879
3366	0.00179962
3378	0.00185255
3390	0.00137618
3402	0.00185255
3414	0.00359924
3426	0.00576937
3438	0.00677504
3450	0.00725141
3462	0.00703969
3474	0.00661625
3486	0.0063516
3498	0.00587523
3510	0.0063516
3522	0.00645746
3534	0.00534593
3546	0.00592816
3558	0.00703969
3570	0.0095274
3582	0.0200605
3594	0.0570585
3606	0.0877579
3618	0.0918335
3630	0.0701852
3642	0.058964
3654	0.0805065
3666	0.114223
3678	0.108295
3690	0.0722495
3702	0.0295879
3714	0.0138147
3726	0.00936861
3738	0.00645746
3750	0.00518714
3762	0.00666918
3774	0.00772778
3786	0.00661625
3798	0.00576937
3810	0.0037051
3822	0.0037051
3834	0.00333459
3846	0.00508128
3858	0.00365217
3870	0.00375803
3882	0.0042344
3894	0.00407561
3906	0.0031758
3918	0.00280529
3930	0.00238185
3942	0.00243478
3954	0
3966	0.00026465
