Infrared Spectrum: 1,3-Propanediol
Formula: C3 H8 O2
CAS: 504-63-2
State: LIQUID (NEAT)
Boiling point: 210-212 C
Class: COBLENTZ III
Instrument: BECKMAN IR-9 (GRATING)
Instrument parameters: ORDER CHANGES: 670, 1200, 2000 CM^-^1
Sampling: TRANSMISSION
Path length: CAPILLARY
Resolution: 2
Origin: DOW CHEMICAL COMPANY
1/CM	TRANSMITTANCE
3812	0.8481
3803	0.8471
3794	0.8461
3785	0.845
3776	0.8439
3767	0.843
3758	0.8418
3749	0.8404
3740	0.8392
3731	0.8374
3722	0.8352
3713	0.8297
3704	0.8186
3695	0.8056
3686	0.7921
3677	0.7776
3668	0.7569
3659	0.7351
3650	0.719
3641	0.6949
3632	0.6647
3623	0.6353
3614	0.6122
3605	0.5749
3596	0.5318
3587	0.4933
3578	0.4542
3569	0.4106
3560	0.3646
3551	0.3312
3542	0.2994
3533	0.2563
3524	0.2149
3515	0.1929
3506	0.1684
3497	0.1399
3488	0.1196
3479	0.1016
3470	0.0851
3461	0.0723
3452	0.0626
3443	0.0561
3434	0.0498
3425	0.0446
3416	0.0405
3407	0.0366
3398	0.0336
3389	0.0312
3380	0.0303
3371	0.0301
3362	0.0316
3353	0.0329
3344	0.0351
3335	0.0375
3326	0.0401
3317	0.043
3308	0.0458
3299	0.0488
3290	0.0541
3281	0.0596
3272	0.0653
3263	0.0714
3254	0.0776
3245	0.0864
3236	0.0953
3227	0.1094
3218	0.129
3209	0.148
3200	0.166
3191	0.1842
3182	0.2014
3173	0.2185
3164	0.2413
3155	0.264
3146	0.2918
3137	0.3161
3128	0.344
3119	0.3704
3110	0.3989
3101	0.4334
3092	0.461
3083	0.4812
3074	0.5016
3065	0.5203
3056	0.535
3047	0.5548
3038	0.5685
3029	0.5785
3020	0.5842
3011	0.583
3002	0.5684
2993	0.5177
2984	0.4399
2975	0.3337
2966	0.2313
2957	0.1943
2948	0.2049
2939	0.2484
2930	0.2918
2921	0.2981
2912	0.2945
2903	0.2509
2894	0.2331
2885	0.2657
2876	0.3132
2867	0.3564
2858	0.4064
2849	0.4499
2840	0.4844
2831	0.5296
2822	0.5569
2813	0.5875
2804	0.6043
2795	0.6209
2786	0.6345
2777	0.6464
2768	0.6567
2759	0.6635
2750	0.669
2741	0.6811
2732	0.6934
2723	0.7026
2714	0.7115
2705	0.72
2696	0.7286
2687	0.7398
2678	0.7435
2669	0.7468
2660	0.7504
2651	0.7539
2642	0.7585
2633	0.7634
2624	0.7685
2615	0.7736
2606	0.7798
2597	0.785
2588	0.7894
2579	0.7936
2570	0.798
2561	0.7998
2552	0.8006
2543	0.8001
2534	0.7997
2525	0.8
2516	0.8041
2507	0.8095
2498	0.8153
2489	0.8203
2480	0.825
2471	0.8289
2462	0.8336
2453	0.8382
2444	0.8375
2435	0.8367
2426	0.8368
2417	0.8386
2408	0.8408
2399	0.8428
2390	0.8451
2381	0.8463
2372	0.8475
2363	0.8488
2354	0.8497
2345	0.8504
2336	0.851
2327	0.8516
2318	0.8516
2309	0.8516
2300	0.8516
2291	0.8516
2282	0.8518
2273	0.852
2264	0.8521
2255	0.8523
2246	0.8525
2237	0.8525
2228	0.8527
2219	0.8516
2210	0.8512
2201	0.851
2192	0.8513
2183	0.8514
2174	0.8514
2165	0.8514
2156	0.8514
2147	0.8511
2138	0.8508
2129	0.8514
2120	0.8521
2111	0.8542
2102	0.8566
2093	0.8575
2084	0.8581
2075	0.8593
2066	0.8582
2057	0.8568
2048	0.8599
2039	0.8634
2030	0.8662
2021	0.868
2012	0.8682
2003	0.8686
1994	0.8694
1985	0.8694
1976	0.8696
1967	0.8705
1958	0.8716
1949	0.8713
1940	0.8709
1931	0.8706
1922	0.8703
1913	0.8737
1904	0.8768
1895	0.8777
1886	0.8771
1877	0.8752
1868	0.8733
1859	0.872
1850	0.8708
1841	0.8703
1832	0.87
1823	0.8697
1814	0.8693
1805	0.8685
1796	0.8654
1787	0.8645
1778	0.8603
1769	0.8574
1760	0.8542
1751	0.8509
1742	0.8474
1733	0.8432
1724	0.8323
1715	0.82
1706	0.8044
1697	0.7851
1688	0.766
1679	0.7443
1670	0.7261
1661	0.7161
1652	0.7183
1643	0.7272
1634	0.7397
1625	0.7551
1616	0.7704
1607	0.7795
1598	0.7858
1589	0.788
1580	0.7893
1571	0.7888
1562	0.7874
1553	0.7851
1544	0.7821
1535	0.7751
1526	0.765
1517	0.7508
1508	0.7365
1499	0.7085
1490	0.6575
1481	0.5338
1472	0.5134
1463	0.5321
1454	0.5139
1445	0.4721
1436	0.4438
1427	0.4258
1418	0.428
1409	0.4574
1400	0.4883
1391	0.4962
1382	0.494
1373	0.4968
1364	0.5062
1355	0.5027
1346	0.5167
1337	0.5325
1328	0.5488
1319	0.5673
1310	0.5872
1301	0.6087
1292	0.6127
1283	0.6443
1274	0.6768
1265	0.6948
1256	0.6941
1247	0.68
1238	0.6595
1229	0.6615
1220	0.6724
1211	0.6734
1202	0.6548
1193	0.63
1184	0.6236
1175	0.654
1166	0.6921
1157	0.7171
1148	0.7318
1139	0.7299
1130	0.7207
1121	0.6947
1112	0.6592
1103	0.5691
1094	0.475
1085	0.3214
1076	0.0866
1067	0.0517
1058	0.0593
1049	0.143
1040	0.1862
1031	0.2304
1022	0.3545
1013	0.541
1004	0.6303
995	0.5166
986	0.3504
977	0.4564
968	0.6762
959	0.6967
950	0.62
941	0.4597
932	0.4793
923	0.4422
914	0.5309
905	0.68
896	0.7218
887	0.7211
878	0.6915
869	0.6697
860	0.6821
851	0.6714
842	0.6671
833	0.6504
824	0.6249
815	0.6036
806	0.578
797	0.5494
788	0.5334
779	0.5296
770	0.534
761	0.5288
752	0.5162
743	0.505
734	0.4934
725	0.4797
716	0.466
707	0.4547
698	0.4464
689	0.4402
680	0.4367
671	0.4301
662	0.4293
653	0.4323
644	0.4356
635	0.439
626	0.4444
617	0.4526
608	0.4608
599	0.4708
590	0.4797
581	0.4876
572	0.4971
563	0.5053
554	0.5129
545	0.5047
536	0.4719
527	0.4809
518	0.5312
509	0.5551
500	0.562
491	0.5632
482	0.5694
473	0.5762
464	0.5715
455	0.5533
446	0.5274
437	0.506
428	0.4848
419	0.4581
410	0.4373
401	0.4342
