Infrared Spectrum: 1-Butanamine, 2-methyl-
Formula: C 5 H 13 N
CAS: 96-15-1
State: gas
Origin: Sadtler Research Labs Under US-EPA Contract
1/CM	ABSORBANCE
450	0.0431018
462	0.00391835
474	0.0172127
486	0.0153935
498	0.0187521
510	0.00867634
522	0.00979587
534	0.00643729
546	0.0138542
558	0.0144139
570	0.0256092
582	0.021411
594	0.0256092
606	0.0131545
618	0.0191719
630	0.0153935
642	0.0183323
654	0.0390435
666	0.0369444
678	0.0400231
690	0.0625536
702	0.0827051
714	0.123988
726	0.226425
738	0.318786
750	0.369444
762	0.367485
774	0.38008
786	0.344255
798	0.224885
810	0.163451
822	0.106495
834	0.0720696
846	0.0493992
858	0.0440814
870	0.0359648
882	0.0394634
894	0.0482796
906	0.0608743
918	0.0603146
930	0.0471601
942	0.0377841
954	0.0408628
966	0.0470202
978	0.0470202
990	0.0484196
1002	0.0572359
1014	0.0677314
1026	0.0580755
1038	0.0509385
1050	0.0810258
1062	0.131125
1074	0.125667
1086	0.0576557
1098	0.0205713
1110	0.00965593
1122	0.0197317
1134	0.0219707
1146	0.0197317
1158	0.0195917
1170	0.0132944
1182	0.0100758
1194	0.011755
1206	0.00671717
1218	0.00601746
1230	0.00727693
1242	0.0111953
1254	0.0179124
1266	0.0225305
1278	0.0244897
1290	0.0281281
1302	0.0321864
1314	0.033166
1326	0.0305071
1338	0.0382039
1350	0.0479998
1362	0.0828451
1374	0.145679
1386	0.195777
1398	0.140361
1410	0.0499589
1422	0.030927
1434	0.0443613
1446	0.109014
1458	0.211031
1470	0.242238
1482	0.152116
1494	0.0747285
1506	0.0408628
1518	0.0288278
1530	0.0181923
1542	0.0209912
1554	0.0209912
1566	0.0228104
1578	0.0293876
1590	0.0384838
1602	0.07123
1614	0.127766
1626	0.140361
1638	0.103976
1650	0.0570959
1662	0.0345654
1674	0.0604545
1686	0.0305071
1698	0.016653
1710	0.0207113
1722	0.0349853
1734	0.0418424
1746	0.021411
1758	0.0109154
1770	0.0107755
1782	0.00755681
1794	0.00727693
1806	0.00881628
1818	0.00727693
1830	0.00825652
1842	0.00363847
1854	0.00363847
1866	0.00475799
1878	0.000419823
1890	0.00153935
1902	0.00125947
1914	0
1926	0.00209911
1938	0.00139941
1950	0
1962	0.000839646
1974	0.00139941
1986	0.000699705
1998	0.000559764
2010	0.000279882
2022	0.00125947
2034	0.000839646
2046	0.00139941
2058	0.00111953
2070	0.00167929
2082	0.000979587
2094	0.00181923
2106	0.00153935
2118	0.00167929
2130	0.00195917
2142	0.00153935
2154	0.00125947
2166	0.00111953
2178	0.000979587
2190	0.00111953
2202	0.00139941
2214	0.00125947
2226	0.00125947
2238	0.00111953
2250	0.00209911
2262	0.00181923
2274	0.00223906
2286	0.00265888
2298	0.00335858
2310	0.00517782
2322	0.0054577
2334	0.00629735
2346	0.00741687
2358	0.00769676
2370	0.00685711
2382	0.00587752
2394	0.00461805
2406	0.00475799
2418	0.00517782
2430	0.00489793
2442	0.00419823
2454	0.00475799
2466	0.00433817
2478	0.00419823
2490	0.00433817
2502	0.00447811
2514	0.00503788
2526	0.00573758
2538	0.00671717
2550	0.00769676
2562	0.00951599
2574	0.0114752
2586	0.0128746
2598	0.0148337
2610	0.0163731
2622	0.0180524
2634	0.0191719
2646	0.0209912
2658	0.0228104
2670	0.0249095
2682	0.0272885
2694	0.0292477
2706	0.0330261
2718	0.0401631
2730	0.0517782
2742	0.0614341
2754	0.0629735
2766	0.0589152
2778	0.0573758
2790	0.0624137
2802	0.0780871
2814	0.112792
2826	0.170308
2838	0.251334
2850	0.360908
2862	0.526598
2874	0.741827
2886	0.843005
2898	0.781291
2910	0.818095
2922	0.97217
2934	1.01835
2946	0.965313
2958	1.13184
2970	1.39941
2982	0.976648
2994	0.33194
3006	0.109574
3018	0.0652125
3030	0.0514983
3042	0.0457607
3054	0.0440814
3066	0.0400231
3078	0.0349853
3090	0.0313468
3102	0.028548
3114	0.0265888
3126	0.0251894
3138	0.0244897
3150	0.0254693
3162	0.0268687
3174	0.0258891
3186	0.0233701
3198	0.0197317
3210	0.0167929
3222	0.014274
3234	0.0120349
3246	0.0109154
3258	0.0106355
3270	0.00979587
3282	0.0102157
3294	0.0106355
3306	0.0104956
3318	0.0106355
3330	0.0127346
3342	0.0177725
3354	0.0195917
3366	0.0155335
3378	0.0109154
3390	0.00993581
3402	0.0103556
3414	0.011755
3426	0.0131545
3438	0.0110553
3450	0.00951599
3462	0.0100758
3474	0.0145539
3486	0.0158133
3498	0.011895
3510	0.0078367
3522	0.0085364
3534	0.00797664
3546	0.0103556
3558	0.00349853
3570	0.014134
3582	0.00601746
3594	0.00699705
3606	0.00643729
3618	0.00741687
3630	0.011895
3642	0.0110553
3654	0.0131545
3666	0.00909616
3678	0.00559764
3690	0.00251894
3702	0.00825652
3714	0.00713699
3726	0.00517782
3738	0.00937605
3750	0.00923611
3762	0.00223906
3774	0.00531776
3786	0.00447811
3798	0.00587752
3810	0.00657723
3822	0.00881628
3834	0.00811658
3846	0.00993581
3858	0.0106355
3870	0.0109154
3882	0.0139941
3894	0.0132944
3906	0.0187521
3918	0.0179124
3930	0.0145539
3942	0.014134
3954	0.0149737
3966	0.0194518
