Infrared Spectrum: GLYCOLIC ACID
Formula: C2 H4 O3
CAS: 79-14-1
State: SOLID (SPLIT MULL)
Class: COBLENTZ III
Instrument: DOW KBr FOREPRISM-GRATING
Instrument parameters: BLAZED AT 3.5, 12.0, 20.0 MICRON AND CHANGED AT 5.0, 7.5, 14.9 MICRON
Sampling: TRANSMISSION
Resolution: 2
Origin: DOW CHEMICAL COMPANY
1/CM	TRANSMITTANCE
452.42	0.8585
461.47	0.8555
470.521	0.8484
479.571	0.8323
488.621	0.7921
497.671	0.6981
506.722	0.7932
515.772	0.8104
524.822	0.7595
533.872	0.6715
542.923	0.7414
551.973	0.7656
561.023	0.7905
570.073	0.7865
579.124	0.7683
588.174	0.7432
597.224	0.7129
606.274	0.6851
615.325	0.6591
624.375	0.6688
633.425	0.7001
642.476	0.7252
651.526	0.7329
660.576	0.6742
669.626	0.5456
678.677	0.4398
687.727	0.4616
696.777	0.5623
705.827	0.6808
714.878	0.6983
723.928	0.6787
732.978	0.7407
742.028	0.8028
751.079	0.8281
760.129	0.8374
769.179	0.8459
778.23	0.8546
787.28	0.8571
796.33	0.8582
805.38	0.8561
814.431	0.8502
823.481	0.8422
832.531	0.832
841.581	0.8196
850.632	0.8056
859.682	0.7856
868.732	0.7454
877.782	0.6523
886.833	0.5039
895.883	0.4546
904.933	0.739
913.983	0.712
923.034	0.6072
932.084	0.4731
941.134	0.4647
950.185	0.5297
959.235	0.6013
968.285	0.6685
977.335	0.7321
986.386	0.7544
995.436	0.701
1004.49	0.6486
1013.54	0.7291
1022.59	0.7693
1031.64	0.7688
1040.69	0.7526
1049.74	0.7137
1058.79	0.6573
1067.84	0.5662
1076.89	0.3553
1085.94	0.1841
1094.99	0.1321
1104.04	0.4752
1113.09	0.7325
1122.14	0.7922
1131.19	0.8122
1140.24	0.8111
1149.29	0.8026
1158.34	0.7916
1167.39	0.7747
1176.44	0.7551
1185.49	0.7274
1194.54	0.6908
1203.59	0.6408
1212.64	0.5722
1221.69	0.4238
1230.74	0.2402
1239.79	0.1941
1248.84	0.1333
1257.89	0.1183
1266.94	0.2703
1275.99	0.5208
1285.04	0.6721
1294.09	0.709
1303.14	0.7294
1312.2	0.7398
1321.25	0.7432
1330.3	0.7394
1339.35	0.7176
1348.4	0.4594
1357.45	0.4736
1366.5	0.4892
1375.55	0.5105
1384.6	0.4926
1393.65	0.4497
1402.7	0.4054
1411.75	0.3484
1420.8	0.3206
1429.85	0.2931
1438.9	0.2513
1447.95	0.4054
1457	0.437
1466.05	0.5901
1475.1	0.6648
1484.15	0.6911
1493.2	0.7048
1502.25	0.713
1511.3	0.7191
1520.35	0.7169
1529.4	0.7097
1538.45	0.7
1547.5	0.6776
1556.55	0.6585
1565.6	0.6525
1574.65	0.6498
1583.7	0.6384
1592.75	0.6214
1601.8	0.6044
1610.85	0.5875
1619.9	0.566
1628.95	0.5312
1638	0.4941
1647.05	0.4559
1656.11	0.4055
1665.16	0.3587
1674.21	0.296
1683.26	0.2545
1692.31	0.2217
1701.36	0.1647
1710.41	0.1044
1719.46	0.0973
1728.51	0.111
1737.56	0.1213
1746.61	0.26
1755.66	0.3801
1764.71	0.4448
1773.76	0.4535
1782.81	0.4612
1791.86	0.5337
1800.91	0.5834
1809.96	0.6024
1819.01	0.6156
1828.06	0.6266
1837.11	0.64
1846.16	0.6517
1855.21	0.6633
1864.26	0.6736
1873.31	0.6826
1882.36	0.6926
1891.41	0.7031
1900.46	0.7126
1909.51	0.721
1918.56	0.7277
1927.61	0.7296
1936.66	0.7291
1945.71	0.7293
1954.76	0.7307
1963.81	0.7337
1972.86	0.7375
1981.91	0.7418
1990.96	0.7415
2000.02	0.7411
2009.07	0.7332
2018.12	0.7282
2027.17	0.7239
2036.22	0.7223
2045.27	0.7225
2054.32	0.7253
2063.37	0.7251
2072.42	0.7241
2081.47	0.721
2090.52	0.717
2099.57	0.7109
2108.62	0.7031
2117.67	0.6959
2126.72	0.6901
2135.77	0.6843
2144.82	0.6779
2153.87	0.6709
2162.92	0.6639
2171.97	0.659
2181.02	0.6532
2190.07	0.6464
2199.12	0.6392
2208.17	0.627
2217.22	0.6099
2226.27	0.5902
2235.32	0.5846
2244.37	0.5847
2253.42	0.5853
2262.47	0.5799
2271.52	0.5737
2280.57	0.568
2289.62	0.5608
2298.67	0.5516
2307.72	0.5412
2316.77	0.5317
2325.82	0.5233
2334.88	0.5159
2343.93	0.509
2352.98	0.501
2362.03	0.4921
2371.08	0.483
2380.13	0.4735
2389.18	0.4629
2398.23	0.4523
2407.28	0.4423
2416.33	0.4323
2425.38	0.421
2434.43	0.4096
2443.48	0.3995
2452.53	0.3902
2461.58	0.388
2470.63	0.3882
2479.68	0.3875
2488.73	0.3816
2497.78	0.3738
2506.83	0.3636
2515.88	0.3495
2524.93	0.3319
2533.98	0.3117
2543.03	0.2913
2552.08	0.2839
2561.13	0.2961
2570.18	0.3161
2579.23	0.3353
2588.28	0.3529
2597.33	0.3673
2606.38	0.372
2615.43	0.3505
2624.48	0.3329
2633.53	0.3232
2642.58	0.3229
2651.63	0.3312
2660.68	0.3414
2669.73	0.3541
2678.79	0.3634
2687.84	0.3719
2696.89	0.3764
2705.94	0.3717
2714.99	0.3596
2724.04	0.3415
2733.09	0.3245
2742.14	0.3122
2751.19	0.3108
2760.24	0.3148
2769.29	0.3206
2778.34	0.3266
2787.39	0.3204
2796.44	0.3088
2805.49	0.297
2814.54	0.2843
2823.59	0.2753
2832.64	0.2672
2841.69	0.2606
2850.74	0.2568
2859.79	0.2589
2868.84	0.262
2877.89	0.2648
2886.94	0.2672
2895.99	0.2682
2905.04	0.2685
2914.09	0.2683
2923.14	0.2675
2932.19	0.287
2941.24	0.3156
2950.29	0.3186
2959.34	0.3187
2968.39	0.321
2977.44	0.3277
2986.49	0.3335
2995.54	0.3399
3004.59	0.3472
3013.64	0.3528
3022.7	0.3584
3031.75	0.3635
3040.8	0.3682
3049.85	0.3697
3058.9	0.3665
3067.95	0.3614
3077	0.3534
3086.05	0.3558
3095.1	0.3583
3104.15	0.3618
3113.2	0.3637
3122.25	0.3649
3131.3	0.3647
3140.35	0.3622
3149.4	0.3582
3158.45	0.352
3167.5	0.3446
3176.55	0.3315
3185.6	0.3169
3194.65	0.3017
3203.7	0.2825
3212.75	0.2665
3221.8	0.2488
3230.85	0.2319
3239.9	0.2165
3248.95	0.209
3258	0.2095
3267.05	0.2119
3276.1	0.215
3285.15	0.2194
3294.2	0.2273
3303.25	0.2387
3312.3	0.2583
3321.35	0.2831
3330.4	0.3105
3339.45	0.3359
3348.5	0.3576
3357.55	0.382
3366.61	0.4123
3375.66	0.4428
3384.71	0.4705
3393.76	0.488
3402.81	0.5094
3411.86	0.5426
3420.91	0.5697
3429.96	0.6003
3439.01	0.6179
3448.06	0.647
3457.11	0.6909
3466.16	0.7327
3475.21	0.7591
3484.26	0.7728
3493.31	0.784
3502.36	0.8004
3511.41	0.8173
3520.46	0.8328
3529.51	0.8451
3538.56	0.857
3547.61	0.8716
3556.66	0.8818
3565.71	0.8815
3574.76	0.8937
3583.81	0.9003
3592.86	0.9036
3601.91	0.9066
3610.96	0.9091
3620.01	0.9111
3629.06	0.913
3638.11	0.9135
3647.16	0.9137
3656.21	0.9138
3665.26	0.913
3674.31	0.9121
3683.36	0.9107
3692.41	0.9089
3701.47	0.9072
3710.52	0.9064
3719.57	0.9055
3728.62	0.9045
3737.67	0.9022
3746.72	0.8991
3755.77	0.8952
3764.82	0.8925
3773.87	0.8903
3782.92	0.8893
3791.97	0.8885
