Infrared Spectrum: Tetrolic acid
Formula: C 4 H 4 O 2
CAS: 590-93-2
State: gas
Origin: EPA-IR VAPOR PHASE LIBRARY
1/CM	ABSORBANCE
549.8	0.002038
559.445	0.002608
569.09	0.003108
578.734	0.003668
588.379	0.005018
598.024	0.010088
607.669	0.016048
617.313	0.033818
626.958	0.042708
636.603	0.079918
646.248	0.052948
655.893	0.034968
665.537	0.036708
675.182	0.018598
684.827	0.016998
694.472	0.012548
704.116	0.008528
713.761	0.005168
723.406	0.003508
733.051	0.003448
742.695	0.003998
752.34	0.003228
761.985	0.002378
771.63	0.002008
781.275	0.0013136
790.919	0.0013609
800.564	0.000549
810.209	0.0011252
819.854	0.00098807
829.498	0.000525
839.143	0.00058
848.788	0.00093996
858.433	0.000688
868.078	0.000723
877.722	0.0008943
887.367	0.0008373
897.012	0.00095574
906.657	0.000928965
916.301	0.00082
925.946	0.0010747
935.591	0.00100379
945.236	0.0010709
954.88	0.000822
964.525	0.0008492
974.17	0.0011839
983.815	0.00092406
993.46	0.0011767
1003.1	0.0014712
1012.75	0.001497
1022.39	0.002108
1032.04	0.003668
1041.68	0.003818
1051.33	0.003608
1060.97	0.0018205
1070.62	0.0013316
1080.26	0.002088
1089.91	0.0011924
1099.55	0.00100779
1109.2	0.0014035
1118.84	0.0014212
1128.49	0.002458
1138.13	0.002988
1147.78	0.006228
1157.42	0.010638
1167.07	0.010848
1176.71	0.010178
1186.36	0.005578
1196	0.002708
1205.64	0.002318
1215.29	0.003598
1224.93	0.007298
1234.58	0.010128
1244.22	0.009188
1253.87	0.008058
1263.51	0.010338
1273.16	0.011198
1282.8	0.008978
1292.45	0.007068
1302.09	0.006238
1311.74	0.005328
1321.38	0.004078
1331.03	0.002968
1340.67	0.002958
1350.32	0.004088
1359.96	0.004508
1369.61	0.004378
1379.25	0.003758
1388.9	0.003298
1398.54	0.002898
1408.18	0.003298
1417.83	0.002728
1427.47	0.002728
1437.12	0.003198
1446.76	0.003228
1456.41	0.002638
1466.05	0.002798
1475.7	0.003358
1485.34	0.002568
1494.99	0.002588
1504.63	0.003458
1514.28	0.002608
1523.92	0.002568
1533.57	0.002268
1543.21	0.001958
1552.86	0.002158
1562.5	0.001988
1572.15	0.0018762
1581.79	0.0018819
1591.44	0.0018285
1601.08	0.0014617
1610.73	0.0013562
1620.37	0.0011781
1630.01	0.0011382
1639.66	0.0011617
1649.3	0.0012229
1658.95	0.001162
1668.59	0.0011185
1678.24	0.00098651
1687.88	0.0011696
1697.53	0.0013314
1707.17	0.0017357
1716.82	0.002668
1726.46	0.004038
1736.11	0.007248
1745.75	0.012798
1755.4	0.011908
1765.04	0.013708
1774.69	0.007328
1784.33	0.004748
1793.98	0.003058
1803.62	0.001938
1813.27	0.0012196
1822.91	0.0010633
1832.55	0.0009084
1842.2	0.00100536
1851.84	0.0008563
1861.49	0.000932689
1871.13	0.0010299
1880.78	0.00092633
1890.42	0.00094657
1900.07	0.0008775
1909.71	0.0008699
1919.36	0.0008297
1929	0.000854
1938.65	0.0008606
1948.29	0.000785
1957.94	0.000804
1967.58	0.000781
1977.23	0.0008818
1986.87	0.000764
1996.52	0.0008861
2006.16	0.0008538
2015.81	0.0008709
2025.45	0.00096565
2035.1	0.00101658
2044.74	0.000951
2054.38	0.0011381
2064.03	0.0011303
2073.67	0.0013308
2083.32	0.0014597
2092.96	0.0018832
2102.61	0.002218
2112.25	0.002658
2121.9	0.002678
2131.54	0.002668
2141.19	0.002978
2150.83	0.002918
2160.48	0.002118
2170.12	0.0015311
2179.77	0.0012879
2189.41	0.0014516
2199.06	0.0017836
2208.7	0.0018836
2218.35	0.002338
2227.99	0.003438
2237.64	0.005098
2247.28	0.007298
2256.92	0.009558
2266.57	0.012318
2276.21	0.019068
2285.86	0.034178
2295.5	0.062048
2305.15	0.094548
2314.79	0.115708
2324.44	0.129618
2334.08	0.120478
2343.73	0.131708
2353.37	0.147378
2363.02	0.165248
2372.66	0.126558
2382.31	0.058868
2391.95	0.007468
2401.6	0.002248
2411.24	0.0017431
2420.89	0.0016239
2430.53	0.0014047
2440.18	0.0013455
2449.82	0.0012278
2459.47	0.0011732
2469.11	0.0012006
2478.75	0.00099834
2488.4	0.001146
2498.04	0.0010613
2507.69	0.0010308
2517.33	0.00092376
2526.98	0.0010293
2536.62	0.00097157
2546.27	0.00099231
2555.91	0.000789
2565.56	0.0008308
2575.2	0.0008749
2584.85	0.00092337
2594.49	0.0008427
2604.14	0.000774
2613.78	0.000764
2623.43	0.0008631
2633.07	0.000814
2642.72	0.00101118
2652.36	0.000808
2662.01	0.00099694
2671.65	0.001138
2681.29	0.00099081
2690.94	0.0011426
2700.58	0.0012025
2710.23	0.0012031
2719.87	0.0011867
2729.52	0.0013413
2739.16	0.0013687
2748.81	0.0014215
2758.45	0.0013121
2768.1	0.0012587
2777.74	0.0011428
2787.39	0.00095926
2797.03	0.0008872
2806.68	0.00095843
2816.32	0.0012089
2825.97	0.0012261
2835.61	0.0018949
2845.26	0.002218
2854.9	0.002508
2864.55	0.003718
2874.19	0.003438
2883.84	0.003368
2893.48	0.004058
2903.12	0.005028
2912.77	0.006288
2922.41	0.007768
2932.06	0.006618
2941.7	0.005748
2951.35	0.007518
2960.99	0.006938
2970.64	0.004538
2980.28	0.003478
2989.93	0.003028
2999.57	0.003098
3009.22	0.002908
3018.86	0.003078
3028.51	0.002858
3038.15	0.003598
3047.8	0.002808
3057.44	0.002388
3067.09	0.002528
3076.73	0.0017301
3086.38	0.0017578
3096.02	0.0015289
3105.67	0.0014033
3115.31	0.00101404
3124.95	0.001137
3134.6	0.00095177
3144.24	0.000764
3153.89	0.0008603
3163.53	0.00100239
3173.18	0.0010355
3182.82	0.0008587
3192.47	0.000743
3202.11	0.000748
3211.76	0.000789
3221.4	0.0008391
3231.05	0.0011531
3240.69	0.00096374
3250.34	0.0013922
3259.98	0.001978
3269.63	0.003008
3279.27	0.005118
3288.92	0.007868
3298.56	0.011588
3308.21	0.016018
3317.85	0.017598
3327.49	0.014668
3337.14	0.012598
3346.78	0.017868
3356.43	0.012858
3366.07	0.005518
3375.72	0.002048
3385.36	0.0012567
3395.01	0.0010889
3404.65	0.00096369
3414.3	0.000767
3423.94	0.0008282
3433.59	0.000583
3443.23	0.00095284
3452.88	0.000782
3462.52	0.0009084
3472.17	0.00102364
3481.81	0.00100802
3491.46	0.000719
3501.1	0.0008831
3510.75	0.00101321
3520.39	0.0013563
3530.04	0.0014826
3539.68	0.0015109
3549.32	0.001988
3558.97	0.003838
3568.61	0.005848
3578.26	0.005688
3587.9	0.005148
3597.55	0.003888
3607.19	0.002588
3616.84	0.002408
3626.48	0.003218
3636.13	0.003168
3645.77	0.002098
3655.42	0.0014239
3665.06	0.0017358
3674.71	0.002198
3684.35	0.003388
3694	0.004498
3703.64	0.004458
3713.29	0.002688
3722.93	0.004288
3732.58	0.006018
3742.22	0.004958
3751.86	0.002118
3761.51	0.0008906
3771.15	0.00093985
3780.8	0.0008728
3790.44	0.0008
3800.09	0.000694
3809.73	0.000688
3819.38	0.00096845
3829.02	0.000643
3838.67	0.000793
3848.31	0.0010379
3857.96	0.0008571
3867.6	0.0010231
3877.25	0.00101418
3886.89	0.00096102
3896.54	0.0010586
3906.18	0.0008377
3915.83	0.001063
3925.47	0.0010793
3935.12	0.00092603
3944.76	0.0012705
3954.41	0.0011301
3964.05	0.00099207
3973.69	0.000763
3983.34	0.00096991
3992.98	0.0008881
