Infrared Spectrum: 1,3-Dithiane
Formula: C 4 H 8 S 2
CAS: 505-23-7
State: gas
Origin: Sadtler Research Labs Under US-EPA Contract
1/CM	ABSORBANCE
450	0.0222234
462	0.00319265
474	0.00707391
486	0.00550889
498	0.00181543
510	0.00425687
522	0.00306745
534	0.00169023
546	0.00519588
558	0.00131462
570	0.00125202
582	0.00356826
594	0.00513328
606	0.00482028
618	0.00732432
630	0.0112682
642	0.0163389
654	0.0229746
666	0.04958
678	0.059784
690	0.0214721
702	0.00913975
714	0.0128958
726	0.0286713
738	0.0846992
750	0.110553
762	0.0751838
774	0.00901454
786	0.00851374
798	0.00907715
810	0.0133966
822	0.0132088
834	0.00888934
846	0.00863894
858	0.00932755
870	0.0154624
882	0.0269184
894	0.0299859
906	0.0528352
918	0.0803171
930	0.0666701
942	0.0282957
954	0.0113308
966	0.00989096
978	0.0115812
990	0.0165267
1002	0.0195315
1014	0.0196567
1026	0.0152746
1038	0.0115186
1050	0.0118316
1062	0.0133966
1074	0.0197193
1086	0.0205957
1098	0.0159633
1110	0.00976576
1122	0.00663571
1134	0.0103918
1146	0.0164641
1158	0.0661693
1170	0.111305
1182	0.102227
1194	0.0572799
1206	0.0567791
1218	0.0436955
1230	0.0441963
1242	0.0535865
1254	0.0622254
1266	0.0742448
1278	0.0932129
1290	0.074057
1302	0.0321143
1314	0.0164641
1326	0.0121446
1338	0.0132088
1350	0.0125828
1362	0.011769
1374	0.0197193
1386	0.0328029
1398	0.0437581
1410	0.0841983
1422	0.11312
1434	0.13453
1446	0.0727424
1458	0.0286713
1470	0.0151494
1482	0.00932755
1494	0.00719912
1506	0.00932755
1518	0.00932755
1530	0.00882674
1542	0.00939015
1554	0.00575929
1566	0.00557149
1578	0.00450727
1590	0.00563409
1602	0.00494548
1614	0.00294225
1626	0.00450727
1638	0.00356826
1650	0.00287965
1662	0.00338045
1674	0.00563409
1686	0.00769992
1698	0.00970316
1710	0.00957795
1722	0.00982836
1734	0.0115186
1746	0.00982836
1758	0.00895194
1770	0.00901454
1782	0.00757472
1794	0.00688611
1806	0.0060723
1818	0.00525848
1830	0.00482028
1842	0.00394386
1854	0.00388126
1866	0.00400646
1878	0.00413167
1890	0.00463247
1902	0.00488288
1914	0.00469508
1926	0.00406907
1938	0.00406907
1950	0.00369346
1962	0.00381866
1974	0.00356826
1986	0.00344306
1998	0.00331785
2010	0.00319265
2022	0.00400646
2034	0.00475768
2046	0.00525848
2058	0.00519588
2070	0.00676091
2082	0.0064479
2094	0.00519588
2106	0.00519588
2118	0.00500808
2130	0.00525848
2142	0.00469508
2154	0.0063853
2166	0.00795033
2178	0.00876414
2190	0.00788773
2202	0.00657311
2214	0.0063227
2226	0.0065105
2238	0.0063227
2250	0.00519588
2262	0.00406907
2274	0.00313005
2286	0.00313005
2298	0.00281705
2310	0.00169023
2322	0.000751212
2334	0.00300485
2346	0.00482028
2358	0.00582189
2370	0.00719912
2382	0.00657311
2394	0.00563409
2406	0.00557149
2418	0.00544629
2430	0.00513328
2442	0.00444467
2454	0.00388126
2466	0.00381866
2478	0.00331785
2490	0.00287965
2502	0.00256664
2514	0.00250404
2526	0.00262924
2538	0.00237884
2550	0.00294225
2562	0.00375606
2574	0.00456987
2586	0.00488288
2598	0.00550889
2610	0.00500808
2622	0.00450727
2634	0.00525848
2646	0.00544629
2658	0.00557149
2670	0.00657311
2682	0.0061975
2694	0.00532109
2706	0.00557149
2718	0.00569669
2730	0.0061349
2742	0.0063853
2754	0.00870154
2766	0.012082
2778	0.0124576
2790	0.0110804
2802	0.0164015
2814	0.034681
2826	0.0735562
2838	0.101226
2850	0.0920861
2862	0.0727424
2874	0.0741822
2886	0.185049
2898	0.437581
2910	0.556773
2922	0.39833
2934	0.210652
2946	0.315572
2958	0.323146
2970	0.205394
2982	0.0746204
2994	0.0198445
3006	0.00832593
3018	0.00563409
3030	0.00356826
3042	0.00313005
3054	0.00300485
3066	0.00331785
3078	0.00394386
3090	0.00444467
3102	0.00419427
3114	0.00450727
3126	0.00444467
3138	0.00431947
3150	0.00381866
3162	0.00281705
3174	0.00219104
3186	0.00225364
3198	0.00225364
3210	0.00244144
3222	0.00281705
3234	0.00231624
3246	0.00237884
3258	0.00262924
3270	0.00256664
3282	0.00275444
3294	0.00231624
3306	0.00175283
3318	0.000813813
3330	0.000375606
3342	0.000751212
3354	0.000313005
3366	0.00131462
3378	0.00131462
3390	0.00150242
3402	0.00169023
3414	0.00287965
3426	0.00319265
3438	0.00350566
3450	0.00162763
3462	0.00150242
3474	0.00194063
3486	0.00125202
3498	0.00143982
3510	0.00143982
3522	0.00194063
3534	0.00143982
3546	0.00244144
3558	0.00244144
3570	0.00175283
3582	0.00250404
3594	0.00325525
3606	0.00162763
3618	0.00231624
3630	0.00262924
3642	0.00125202
3654	0.000688611
3666	0.00200323
3678	0.00118942
3690	0.00206583
3702	0.00287965
3714	0.00225364
3726	0.00219104
3738	0.00275444
3750	0.00169023
3762	0.00143982
3774	0.00356826
3786	0.000813813
3798	0.00156503
3810	0.00231624
3822	0.00275444
3834	0.00269184
3846	0.00250404
3858	0.00219104
3870	0.00112682
3882	0.000500808
3894	0.00212843
3906	0.00156503
3918	0.000688611
3930	0.000751212
3942	0.000187803
3954	0.00219104
3966	0
