Infrared Spectrum: Allyl Isothiocyanate
Formula: C 4 H 5 N S
CAS: 57-06-7
State: gas
Origin: Sadtler Research Labs Under US-EPA Contract
1/CM	ABSORBANCE
450	0.00814691
462	0.00635706
474	0.00888754
486	0.0117883
498	0.0153063
510	0.016479
522	0.0164173
534	0.0116032
546	0.0112946
558	0.0112946
570	0.00728284
582	0.00654221
594	0.00666565
606	0.00555471
618	0.00833206
630	0.00395002
642	0.00611018
654	0.00413517
666	0.00197501
678	0.00413517
690	0.00950473
702	0.0119735
714	0.0201204
726	0.0234532
738	0.0204907
750	0.0137016
762	0.00536955
774	0.00395002
786	0.00154297
798	0.0022836
810	0.000925785
822	0.00104922
834	0.00203673
846	0.00185157
858	0.00160469
870	0.0048758
882	0.00611018
894	0.0117266
906	0.021972
918	0.0369697
930	0.0549299
942	0.0364759
954	0.0218485
966	0.0191329
978	0.0255517
990	0.0279587
1002	0.0178368
1014	0.0116649
1026	0.00827035
1038	0.00685081
1050	0.00586331
1062	0.00573987
1074	0.00524611
1086	0.00555471
1098	0.00549299
1110	0.00549299
1122	0.00654221
1134	0.00728284
1146	0.00604846
1158	0.00413517
1170	0.00419689
1182	0.00413517
1194	0.00407345
1206	0.00469064
1218	0.00524611
1230	0.00629534
1242	0.00586331
1254	0.00524611
1266	0.00580159
1278	0.00901097
1290	0.018454
1302	0.0221571
1314	0.0320322
1326	0.0749886
1338	0.0833824
1350	0.0418455
1362	0.019318
1374	0.00796175
1386	0.00864066
1398	0.00968988
1410	0.0161087
1422	0.0240087
1434	0.0187009
1446	0.0257985
1458	0.0295634
1470	0.00740628
1482	0.00327111
1494	0.00246876
1506	0.00462892
1518	0.00320939
1530	0.00197501
1542	0.00530783
1554	0.00240704
1566	0.00185157
1578	0.00265392
1590	0.00111094
1602	0.00111094
1614	0.00141954
1626	0.00302423
1638	0.00709768
1650	0.0104305
1662	0.00709768
1674	0.0025922
1686	0.00401173
1698	0.00320939
1710	0.00166641
1722	0.00185157
1734	0.00308595
1746	0.00185157
1758	0.00234532
1770	0.00203673
1782	0.000864066
1794	0.00209845
1806	0.000493752
1818	0.000493752
1830	0.00123438
1842	0.00209845
1854	0.00339454
1866	0.00598674
1878	0.00629534
1890	0.00598674
1902	0.00765316
1914	0.0108625
1926	0.0149977
1938	0.0206141
1950	0.0272798
1962	0.0367228
1974	0.0503627
1986	0.0710386
1998	0.105725
2010	0.161272
2022	0.251381
2034	0.385497
2046	0.535165
2058	0.61719
2070	0.544115
2082	0.429811
2094	0.299461
2106	0.171764
2118	0.102762
2130	0.073569
2142	0.0661628
2154	0.0746183
2166	0.0839378
2178	0.0924551
2190	0.0905418
2202	0.0730136
2214	0.0486346
2226	0.0304275
2238	0.0214165
2250	0.0179602
2262	0.0158618
2274	0.0128993
2286	0.00925785
2298	0.00672737
2310	0.00469064
2322	0.00327111
2334	0.00308595
2346	0.00246876
2358	0.00203673
2370	0.00185157
2382	0.00154297
2394	0.00135782
2406	0.000925785
2418	0.000432033
2430	0.000493752
2442	0.000432033
2454	0.000493752
2466	0.000432033
2478	0.000432033
2490	0.000740628
2502	0.000555471
2514	0.000555471
2526	0
2538	0.000432033
2550	0.00148126
2562	0.00154297
2574	0.00117266
2586	0.00104922
2598	0.00154297
2610	0.00209845
2622	0.00265392
2634	0.00370314
2646	0.00364142
2658	0.00407345
2670	0.00462892
2682	0.00370314
2694	0.00265392
2706	0.00191329
2718	0.00185157
2730	0.00277736
2742	0.00277736
2754	0.00370314
2766	0.00481408
2778	0.00524611
2790	0.00481408
2802	0.00481408
2814	0.00425861
2826	0.00432033
2838	0.00438205
2850	0.00450549
2862	0.00827035
2874	0.0126524
2886	0.0132079
2898	0.0097516
2910	0.0106157
2922	0.018454
2934	0.0253048
2946	0.0221571
2958	0.0156149
2970	0.00962816
2982	0.00796175
2994	0.00950473
3006	0.00993676
3018	0.00901097
3030	0.0106774
3042	0.00839378
3054	0.00456721
3066	0.00475236
3078	0.00734456
3090	0.00981332
3102	0.0138868
3114	0.0104922
3126	0.00376486
3138	0.00253048
3150	0.00222188
3162	0.00178985
3174	0.00172813
3186	0.0012961
3198	0.00141954
3210	0.000925785
3222	0.000925785
3234	0.000370314
3246	0.000987504
3258	0.000925785
3270	0.00148126
3282	0.00148126
3294	0.000987504
3306	0.000925785
3318	0.00104922
3330	0.000987504
3342	0.00141954
3354	0.00117266
3366	0.00154297
3378	0.00154297
3390	0.00111094
3402	0.00111094
3414	0.00148126
3426	0.00111094
3438	0.00117266
3450	0.00117266
3462	0.00166641
3474	0.00123438
3486	0.0012961
3498	0.00185157
3510	0.00166641
3522	0.00123438
3534	0.0012961
3546	0.00178985
3558	0.00135782
3570	0.00160469
3582	0.0012961
3594	0.00135782
3606	0.00141954
3618	0.00166641
3630	0.00314767
3642	0.00141954
3654	0.00141954
3666	0.000864066
3678	0.00203673
3690	0.00148126
3702	0.000555471
3714	0.000987504
3726	0.00061719
3738	0.00123438
3750	0.00197501
3762	6.1719e-05
3774	6.1719e-05
3786	6.1719e-05
3798	0.000123438
3810	0.000678909
3822	0.000678909
3834	0.000370314
3846	0.000246876
3858	0.000123438
3870	0.000308595
3882	0.000802347
3894	0.000308595
3906	0.000123438
3918	0.000370314
3930	6.1719e-05
3942	6.1719e-05
3954	0
3966	6.1719e-05
