Infrared Spectrum: ALLYLISOTHIOCYANATE
Formula: C4 H5 N S
CAS: 57-06-7
State: SOLUTION (10% IN CCl4 FOR 4000-1330 CM^-^1, 10% IN CS2 FOR 1330-600 CM^-^1)
Class: COBLENTZ III
Instrument: BECKMAN IR-7 (GRATING)
Instrument parameters: GRATING CHANGES AT 3000, 2200, 1150 CM^-^1
Sampling: TRANSMISSION
Path length: 0.011 CM, 0.010 CM
Resolution: 4
Origin: WESTERN REGIONAL RES. USDA
1/CM	TRANSMITTANCE
600.649	0.703
609.736	0.705
618.822	0.715
627.909	0.718
636.996	0.716
646.083	0.698
655.169	0.68
664.256	0.699
673.343	0.658
682.429	0.614
691.516	0.532
700.603	0.493
709.689	0.453
718.776	0.42
727.863	0.482
736.95	0.578
746.036	0.662
755.123	0.717
764.21	0.753
773.296	0.763
782.383	0.766
791.47	0.765
800.556	0.773
809.643	0.774
818.73	0.777
827.817	0.773
836.903	0.74
845.99	0.671
855.077	0.637
864.163	0.657
873.25	0.664
882.337	0.683
891.424	0.677
900.51	0.519
909.597	0.413
918.684	0.1239
927.77	0.147
936.857	0.3959
945.944	0.606
955.03	0.634
964.117	0.592
973.204	0.471
982.291	0.176
991.377	0.533
1000.46	0.664
1009.55	0.698
1018.64	0.695
1027.72	0.654
1036.81	0.71
1045.9	0.73
1054.98	0.73
1064.07	0.724
1073.16	0.717
1082.24	0.701
1091.33	0.714
1100.42	0.724
1109.5	0.715
1118.59	0.685
1127.68	0.674
1136.76	0.698
1145.85	0.731
1154.94	0.742
1164.02	0.745
1173.11	0.745
1182.2	0.744
1191.28	0.741
1200.37	0.74
1209.46	0.739
1218.54	0.713
1227.63	0.69
1236.72	0.697
1245.8	0.705
1254.89	0.709
1263.98	0.7
1273.07	0.667
1282.15	0.4839
1291.24	0.627
1300.33	0.592
1309.41	0.409
1318.5	0.129
1327.59	0.329
1336.67	0.219
1345.76	0.6099
1354.85	0.759
1363.93	0.781
1373.02	0.788
1382.11	0.782
1391.19	0.736
1400.28	0.479
1409.37	0.429
1418.45	0.607
1427.54	0.466
1436.63	0.227
1445.71	0.706
1454.8	0.798
1463.89	0.802
1472.97	0.802
1482.06	0.792
1491.15	0.77
1500.23	0.711
1509.32	0.669
1518.41	0.639
1527.49	0.581
1536.58	0.504
1545.67	0.466
1554.75	0.522
1563.84	0.589
1572.93	0.626
1582.01	0.653
1591.1	0.72
1600.19	0.803
1609.27	0.832
1618.36	0.847
1627.45	0.845
1636.53	0.763
1645.62	0.5172
1654.71	0.861
1663.79	0.867
1672.88	0.87
1681.97	0.868
1691.05	0.872
1700.14	0.874
1709.23	0.877
1718.31	0.875
1727.4	0.874
1736.49	0.874
1745.57	0.875
1754.66	0.87
1763.75	0.866
1772.83	0.872
1781.92	0.868
1791.01	0.865
1800.09	0.868
1809.18	0.868
1818.27	0.862
1827.35	0.852
1836.44	0.836
1845.53	0.805
1854.61	0.798
1863.7	0.798
1872.79	0.806
1881.87	0.82
1890.96	0.822
1900.05	0.813
1909.13	0.795
1918.22	0.763
1927.31	0.734
1936.39	0.703
1945.48	0.676
1954.57	0.633
1963.65	0.583
1972.74	0.517
1981.83	0.447
1990.91	0.36
2000	0.265
2009.09	0.2499
2018.17	0.2299
2027.26	0.2097
2036.35	0.1855
2045.43	0.1547
2054.52	0.1346
2063.61	0.1234
2072.69	0.1055
2081.78	0.0914
2090.87	0.0779
2099.96	0.0697
2109.04	0.0606
2118.13	0.0516
2127.22	0.04
2136.3	0.0295
2145.39	0.0248
2154.48	0.024
2163.56	0.0271
2172.65	0.0511
2181.74	0.0867
2190.82	0.1126
2199.91	0.2103
2209	0.3077
2218.08	0.3499
2227.17	0.3763
2236.26	0.413
2245.34	0.4774
2254.43	0.5538
2263.52	0.6082
2272.6	0.6695
2281.69	0.7106
2290.78	0.7454
2299.86	0.78
2308.95	0.8001
2318.04	0.8121
2327.12	0.8202
2336.21	0.8302
2345.3	0.8376
2354.38	0.8421
2363.47	0.8459
2372.56	0.852
2381.64	0.8583
2390.73	0.8643
2399.82	0.87
2408.9	0.872
2417.99	0.8727
2427.08	0.8762
2436.16	0.8787
2445.25	0.879
2454.34	0.8782
2463.42	0.8757
2472.51	0.874
2481.6	0.874
2490.68	0.873
2499.77	0.872
2508.86	0.8701
2517.94	0.8676
2527.03	0.8632
2536.12	0.8596
2545.2	0.859
2554.29	0.86
2563.38	0.861
2572.46	0.8625
2581.55	0.862
2590.64	0.861
2599.72	0.861
2608.81	0.8595
2617.9	0.852
2626.98	0.8459
2636.07	0.8326
2645.16	0.8176
2654.24	0.8016
2663.33	0.7976
2672.42	0.8034
2681.5	0.8156
2690.59	0.8315
2699.68	0.8387
2708.76	0.842
2717.85	0.842
2726.94	0.841
2736.02	0.84
2745.11	0.8375
2754.2	0.8279
2763.28	0.8178
2772.37	0.8064
2781.46	0.804
2790.54	0.8068
2799.63	0.813
2808.72	0.813
2817.8	0.8106
2826.89	0.8081
2835.98	0.7675
2845.06	0.7333
2854.15	0.6979
2863.24	0.7256
2872.32	0.7569
2881.41	0.792
2890.5	0.7629
2899.58	0.6906
2908.67	0.6255
2917.76	0.5877
2926.85	0.6443
2935.93	0.6988
2945.02	0.7316
2954.11	0.7821
2963.19	0.802
2972.28	0.7729
2981.37	0.7207
2990.45	0.6898
2999.54	0.8007
3008.63	0.7598
3017.71	0.7414
3026.8	0.7978
3035.89	0.8273
3044.97	0.843
3054.06	0.8377
3063.15	0.8091
3072.23	0.7685
3081.32	0.6948
3090.41	0.7153
3099.49	0.7849
3108.58	0.8264
3117.67	0.858
3126.75	0.8649
3135.84	0.8674
3144.93	0.869
3154.01	0.8735
3163.1	0.876
3172.19	0.877
3181.27	0.879
3190.36	0.8805
3199.45	0.882
3208.53	0.883
3217.62	0.884
3226.71	0.884
3235.79	0.884
3244.88	0.884
3253.97	0.884
3263.05	0.884
3272.14	0.884
3281.23	0.884
3290.31	0.884
3299.4	0.883
3308.49	0.883
3317.57	0.883
3326.66	0.883
3335.75	0.883
3344.83	0.883
3353.92	0.8812
3363.01	0.879
3372.09	0.879
3381.18	0.879
3390.27	0.8799
3399.35	0.8814
3408.44	0.883
3417.53	0.882
3426.61	0.881
3435.7	0.8801
3444.79	0.8799
3453.87	0.881
3462.96	0.883
3472.05	0.8835
3481.13	0.885
3490.22	0.885
3499.31	0.885
3508.39	0.886
3517.48	0.886
3526.57	0.885
3535.65	0.885
3544.74	0.884
3553.83	0.883
3562.91	0.883
3572	0.883
3581.09	0.883
3590.17	0.883
3599.26	0.883
3608.35	0.883
3617.43	0.883
3626.52	0.885
3635.61	0.885
3644.69	0.886
3653.78	0.886
3662.87	0.885
3671.95	0.8822
3681.04	0.8796
3690.13	0.8781
3699.21	0.876
3708.3	0.876
3717.39	0.877
3726.47	0.877
3735.56	0.878
3744.65	0.879
3753.74	0.879
3762.82	0.877
3771.91	0.875
3781	0.873
3790.08	0.873
3799.17	0.872
3808.26	0.871
3817.34	0.8701
3826.43	0.8726
3835.52	0.874
3844.6	0.875
3853.69	0.874
3862.78	0.872
3871.86	0.871
3880.95	0.87
3890.04	0.87
3899.12	0.87
3908.21	0.8712
3917.3	0.872
3926.38	0.87
3935.47	0.869
3944.56	0.869
3953.64	0.868
3962.73	0.869
3971.82	0.867
3980.9	0.865
3989.99	0.865
3999.08	0.866
4008.16	0.866
4017.25	0.866
