Infrared Spectrum: 3-Thiophenone
Formula: C 4 H 6 O S
CAS: 1003-04-9
State: gas
Origin: EPA-IR VAPOR PHASE LIBRARY
1/CM	ABSORBANCE
549.8	0.001334
559.445	0.0009272
569.09	0.0007834
578.734	0.0002406
588.379	0.0008388
598.024	0.0004363
607.669	8.1e-05
617.313	0.00037453
626.958	0.0005865
636.603	0.0002294
646.248	0.000171
655.893	0.0005121
665.537	0.0007599
675.182	0.000835
684.827	0.0009566
694.472	0.0011784
704.116	0.001744
713.761	0.002314
723.406	0.002944
733.051	0.002624
742.695	0.001834
752.34	0.0011787
761.985	0.0009222
771.63	0.0010014
781.275	0.0009317
790.919	0.0008035
800.564	0.0010947
810.209	0.001424
819.854	0.001384
829.498	0.001684
839.143	0.001654
848.788	0.002154
858.433	0.002424
868.078	0.001854
877.722	0.001584
887.367	0.0009668
897.012	0.0007235
906.657	0.0006891
916.301	0.0006898
925.946	0.0005753
935.591	0.0004881
945.236	0.0008509
954.88	0.0011574
964.525	0.002164
974.17	0.003814
983.815	0.003484
993.46	0.003524
1003.1	0.001784
1012.75	0.0010213
1022.39	0.0010003
1032.04	0.0009156
1041.68	0.001714
1051.33	0.001544
1060.97	0.001834
1070.62	0.002734
1080.26	0.003384
1089.91	0.005544
1099.55	0.009824
1109.2	0.014704
1118.84	0.015974
1128.49	0.016074
1138.13	0.010994
1147.78	0.007574
1157.42	0.007164
1167.07	0.007614
1176.71	0.009544
1186.36	0.010184
1196	0.010884
1205.64	0.009004
1215.29	0.006724
1224.93	0.004774
1234.58	0.004394
1244.22	0.004914
1253.87	0.006954
1263.51	0.009274
1273.16	0.009404
1282.8	0.008204
1292.45	0.004744
1302.09	0.002214
1311.74	0.001314
1321.38	0.0010171
1331.03	0.0009455
1340.67	0.0008864
1350.32	0.0008882
1359.96	0.000871
1369.61	0.0011263
1379.25	0.001834
1388.9	0.003804
1398.54	0.007164
1408.18	0.008054
1417.83	0.007944
1427.47	0.005144
1437.12	0.002734
1446.76	0.002114
1456.41	0.001904
1466.05	0.001764
1475.7	0.0012908
1485.34	0.0009467
1494.99	0.0007346
1504.63	0.0005879
1514.28	0.0006734
1523.92	0.0006675
1533.57	0.0008223
1543.21	0.0007281
1552.86	0.0008302
1562.5	0.0008024
1572.15	0.0009131
1581.79	0.0009963
1591.44	0.0009602
1601.08	0.0010853
1610.73	0.0009232
1620.37	0.0011515
1630.01	0.0010634
1639.66	0.001324
1649.3	0.001544
1658.95	0.001894
1668.59	0.002404
1678.24	0.003094
1687.88	0.004004
1697.53	0.005254
1707.17	0.006714
1716.82	0.010104
1726.46	0.020014
1736.11	0.048314
1745.75	0.093064
1755.4	0.112244
1765.04	0.101734
1774.69	0.051334
1784.33	0.011744
1793.98	0.005144
1803.62	0.003754
1813.27	0.003394
1822.91	0.003064
1832.55	0.002294
1842.2	0.001754
1851.84	0.001324
1861.49	0.0011733
1871.13	0.0010431
1880.78	0.0009982
1890.42	0.0009522
1900.07	0.0008445
1909.71	0.0007837
1919.36	0.0007224
1929	0.000697
1938.65	0.00075
1948.29	0.0006593
1957.94	0.0007292
1967.58	0.0008083
1977.23	0.000756
1986.87	0.0005911
1996.52	0.0006164
2006.16	0.0006116
2015.81	0.0006668
2025.45	0.0004887
2035.1	0.0004968
2044.74	0.0004675
2054.38	0.0004889
2064.03	0.0005408
2073.67	0.0005454
2083.32	0.0005321
2092.96	0.0005742
2102.61	0.0005396
2112.25	0.0004955
2121.9	0.0005281
2131.54	0.000531
2141.19	0.0005438
2150.83	0.0005555
2160.48	0.0005757
2170.12	0.0005737
2179.77	0.0006157
2189.41	0.0006382
2199.06	0.0007245
2208.7	0.0007064
2218.35	0.0007706
2227.99	0.0007372
2237.64	0.0006946
2247.28	0.0008087
2256.92	0.0006932
2266.57	0.0007413
2276.21	0.0007161
2285.86	0.0005823
2295.5	0.0006992
2305.15	0.0006715
2314.79	0.0006871
2324.44	0.0006277
2334.08	0.0005721
2343.73	0.0006045
2353.37	0.0006189
2363.02	0.0007062
2372.66	0.0006076
2382.31	0.0006594
2391.95	0.000588
2401.6	0.0004208
2411.24	0.0006136
2420.89	0.0005324
2430.53	0.0004353
2440.18	0.00037921
2449.82	0.0004858
2459.47	0.00040226
2469.11	0.0004429
2478.75	0.0004375
2488.4	0.0004659
2498.04	0.0004643
2507.69	0.0004779
2517.33	0.00029481
2526.98	0.00037294
2536.62	0.00038953
2546.27	0.0004452
2555.91	0.0004338
2565.56	0.0005347
2575.2	0.00035969
2584.85	0.0004669
2594.49	0.0004233
2604.14	0.00039123
2613.78	0.00035724
2623.43	0.00031897
2633.07	0.00033892
2642.72	0.0004366
2652.36	0.00036561
2662.01	0.00036978
2671.65	0.00035728
2681.29	0.0005551
2690.94	0.00031991
2700.58	0.0004647
2710.23	0.0004413
2719.87	0.000566
2729.52	0.0004989
2739.16	0.0004419
2748.81	0.0005729
2758.45	0.0004446
2768.1	0.0005333
2777.74	0.0007453
2787.39	0.0009755
2797.03	0.0010515
2806.68	0.0012995
2816.32	0.001384
2825.97	0.001245
2835.61	0.0012416
2845.26	0.001814
2854.9	0.002534
2864.55	0.003864
2874.19	0.004884
2883.84	0.005494
2893.48	0.006164
2903.12	0.007614
2912.77	0.009144
2922.41	0.010934
2932.06	0.011884
2941.7	0.013104
2951.35	0.012424
2960.99	0.012094
2970.64	0.011194
2980.28	0.010374
2989.93	0.007934
2999.57	0.005124
3009.22	0.002964
3018.86	0.001604
3028.51	0.0011467
3038.15	0.0011758
3047.8	0.0010513
3057.44	0.0008108
3067.09	0.0006418
3076.73	0.0006409
3086.38	0.00034378
3096.02	0.0004371
3105.67	0.0006146
3115.31	0.0005346
3124.95	0.00039891
3134.6	0.0004571
3144.24	0.00034814
3153.89	0.00037415
3163.53	0.00036895
3173.18	0.00038007
3182.82	0.00032221
3192.47	0.0004871
3202.11	0
3211.76	0.00027
3221.4	0.00040288
3231.05	0.00036811
3240.69	0.00037443
3250.34	0.00030121
3259.98	0.00029911
3269.63	0.0004264
3279.27	0.0004498
3288.92	0.0005408
3298.56	0.00034308
3308.21	0.00032371
3317.85	0.0005254
3327.49	0.0004556
3337.14	0.0002707
3346.78	0.0002441
3356.43	0.000285
3366.07	0.0004821
3375.72	0.000239
3385.36	0.0004922
3395.01	0.0004264
3404.65	0.0005377
3414.3	0.0004072
3423.94	0.0005024
3433.59	0.0005286
3443.23	0.0006261
3452.88	0.0009164
3462.52	0.001334
3472.17	0.001944
3481.81	0.002534
3491.46	0.002944
3501.1	0.002744
3510.75	0.001734
3520.39	0.0009698
3530.04	0.0007033
3539.68	0.000572
3549.32	0.0004621
3558.97	0.0005634
3568.61	0.0005955
3578.26	0.0005298
3587.9	0.0004154
3597.55	0.0005537
3607.19	0.0004637
3616.84	0.00032983
3626.48	0.0005705
3636.13	0.0006136
3645.77	0.0006518
3655.42	0.0005015
3665.06	0.0004855
3674.71	0.00040158
3684.35	0.0006866
3694	0.00033032
3703.64	0.0004825
3713.29	0.0005155
3722.93	0.00037462
3732.58	0.0004649
3742.22	0.0005382
3751.86	0.0004304
3761.51	0.0005269
3771.15	0.000310454
3780.8	0.000654
3790.44	0.0005694
3800.09	0.0005309
3809.73	0.0005663
3819.38	0.00035918
3829.02	0.0004378
3838.67	0.0004226
3848.31	0.0004702
3857.96	0.00033976
3867.6	0.0005013
3877.25	0.0006032
3886.89	0.000481
3896.54	0.0006683
3906.18	0.0005092
3915.83	0.0004753
3925.47	0.00039853
3935.12	0.0005532
3944.76	0.00040173
3954.41	0.0006318
3964.05	0.0002408
3973.69	0.0005654
3983.34	0.0004728
3992.98	0.00038223
