Infrared Spectrum: Disulfide, dimethyl
Formula: C 2 H 6 S 2
CAS: 624-92-0
State: gas
Origin: Sadtler Research Labs Under US-EPA Contract
1/CM	ABSORBANCE
450	0.0896463
462	0.0157196
474	0.0100605
486	0.0158094
498	0.0225463
510	0.0130248
522	0.00426673
534	0.00157196
546	0.00682678
558	0.00714117
570	0.013923
582	0.0124858
594	0.00628782
606	0.00651238
618	0.00844364
630	0.00808434
642	0.00808434
654	0.00920716
666	0.011363
678	0.0244327
690	0.0294629
702	0.0266783
714	0.00974612
726	0.0079496
738	0.00835382
750	0.00907243
762	0.00992577
774	0.00529973
786	0.0109588
798	0.00664712
810	0.00776995
822	0.00754538
834	0.00821908
846	0.0115876
858	0.0112732
870	0.011857
882	0.0131595
894	0.0138332
906	0.0165729
918	0.02066
930	0.0386252
942	0.104872
954	0.148303
966	0.129394
978	0.04132
990	0.0198965
1002	0.0175161
1014	0.0171119
1026	0.0157196
1038	0.0141476
1050	0.0135188
1062	0.0132493
1074	0.0114977
1086	0.011363
1098	0.00974612
1110	0.00835382
1122	0.00812925
1134	0.00830891
1146	0.00696152
1158	0.0069166
1170	0.00741065
1182	0.00857838
1194	0.0105546
1206	0.0101503
1218	0.00907243
1230	0.00893769
1242	0.00889277
1254	0.0114528
1266	0.0149111
1278	0.0244327
1290	0.0581623
1302	0.0988535
1314	0.0919369
1326	0.0594199
1338	0.0238937
1350	0.0179203
1362	0.0161687
1374	0.0161238
1386	0.0216481
1398	0.0453172
1410	0.103435
1422	0.168783
1434	0.197707
1446	0.149965
1458	0.092386
1470	0.0346279
1482	0.0202558
1494	0.0163034
1506	0.0178754
1518	0.0209744
1530	0.024792
1542	0.0261843
1554	0.0253309
1566	0.02322
1578	0.0184592
1590	0.0146416
1602	0.0114977
1614	0.00785978
1626	0.00817417
1638	0.00696152
1650	0.00700643
1662	0.0069166
1674	0.00592852
1686	0.005165
1698	0.00565904
1710	0.00458113
1722	0.00444639
1734	0.00462604
1746	0.00404217
1758	0.00404217
1770	0.00372778
1782	0.00377269
1794	0.00359304
1806	0.00363795
1818	0.00354813
1830	0.00395234
1842	0.00323374
1854	0.00314391
1866	0.00291935
1878	0.00359304
1890	0.00399726
1902	0.00399726
1914	0.00395234
1926	0.00512008
1938	0.0034583
1950	0.00264987
1962	0.00354813
1974	0.00498534
1986	0.0075903
1998	0.00781486
2010	0.00673695
2022	0.00417691
2034	0.00422182
2046	0.00417691
2058	0.00359304
2070	0.00354813
2082	0.00238039
2094	0.00296426
2106	0.00332356
2118	0.00395234
2130	0.00422182
2142	0.00404217
2154	0.00390743
2166	0.00368287
2178	0.00359304
2190	0.00341339
2202	0.00314391
2214	0.00368287
2226	0.0044913
2238	0.00592852
2250	0.00911734
2262	0.0105096
2274	0.00871312
2286	0.00610817
2298	0.00399726
2310	0.00336848
2322	0.00170669
2334	0.00220074
2346	0.00642256
2358	0.00431165
2370	0.0116774
2382	0.0114977
2394	0.00803943
2406	0.00556921
2418	0.0038176
2430	0.00323374
2442	0.00300917
2454	0.00305408
2466	0.00314391
2478	0.00368287
2490	0.00296426
2502	0.00273969
2514	0.00166178
2526	0.002066
2538	0.00215582
2550	0.00184143
2562	0.00238039
2574	0.00282952
2586	0.0034583
2598	0.00417691
2610	0.0044913
2622	0.00363795
2634	0.00408708
2646	0.00350321
2658	0.00296426
2670	0.004132
2682	0.00431165
2694	0.00422182
2706	0.00561413
2718	0.00615308
2730	0.00642256
2742	0.00763521
2754	0.00673695
2766	0.00601834
2778	0.00606326
2790	0.00637765
2802	0.0109139
2814	0.0295078
2826	0.0663365
2838	0.0850203
2850	0.0775198
2862	0.0565455
2874	0.0486857
2886	0.0379964
2898	0.0607673
2910	0.204758
2922	0.403409
2934	0.402555
2946	0.227574
2958	0.0675042
2970	0.0631926
2982	0.136985
2994	0.1885
3006	0.179517
3018	0.100875
3030	0.0473383
3042	0.0244327
3054	0.0186838
3066	0.0200312
3078	0.0229955
3090	0.0238488
3102	0.0228607
3114	0.0224116
3126	0.0209744
3138	0.0185491
3150	0.0154052
3162	0.0111384
3174	0.00723099
3186	0.00592852
3198	0.0065573
3210	0.00785978
3222	0.00866821
3234	0.00938682
3246	0.00916225
3258	0.00835382
3270	0.00754538
3282	0.00561413
3294	0.00327865
3306	0.00404217
3318	0.00408708
3330	0.00323374
3342	0.00372778
3354	0.00372778
3366	0.00229056
3378	0.00251513
3390	0.00233548
3402	0.00318882
3414	0.00233548
3426	0.0034583
3438	0.00300917
3450	0.00296426
3462	0.00300917
3474	0.00278461
3486	0.00251513
3498	0.00336848
3510	0.00426673
3522	0.00291935
3534	0.00273969
3546	0.0038176
3558	0.00251513
3570	0.00372778
3582	0.00148213
3594	0.00318882
3606	0.00525482
3618	0.00278461
3630	0.00291935
3642	0.00300917
3654	0.00525482
3666	0.0044913
3678	0.00592852
3690	0.00543447
3702	0.00314391
3714	0.00561413
3726	0.00494043
3738	0.00480569
3750	0.00170669
3762	0.00287443
3774	0.00408708
3786	0.00220074
3798	0.003099
3810	0.00116774
3822	0.00300917
3834	0.00354813
3846	0.00386252
3858	0.00574886
3870	0.0069166
3882	0.00952156
3894	0.00696152
3906	0.00736573
3918	0.00121265
3930	0.00543447
3942	0.00790469
3954	0.00305408
3966	0.00112283
