Infrared Spectrum: ACETOHYDROXAMIC ACID, 2-AMINO-
Formula: C2 H6 N2 O2
CAS: 5349-80-4
State: SOLID (1 mg / 650 mg KBr DISC)
Class: COBLENTZ III
Instrument: PERKIN-ELMER 21 (GRATING)
Instrument parameters: FILTER CHANGE AT 1070 CM^-^1
Sampling: TRANSMISSION
Resolution: 2
Origin: SOUTHERN RESEARCH INSTITUTE
1/CM	TRANSMITTANCE
623.964	0.899
633.313	0.899
642.662	0.8922
652.011	0.8821
661.36	0.8712
670.709	0.8662
680.057	0.855
689.406	0.8386
698.755	0.8171
708.104	0.7816
717.453	0.7346
726.802	0.6779
736.151	0.5676
745.5	0.4645
754.849	0.641
764.198	0.5824
773.547	0.4549
782.895	0.3415
792.244	0.3771
801.593	0.5475
810.942	0.6703
820.291	0.676
829.64	0.6728
838.989	0.65
848.338	0.6291
857.687	0.5768
867.036	0.5136
876.385	0.3181
885.733	0.3179
895.082	0.5508
904.431	0.7047
913.78	0.6933
923.129	0.6013
932.478	0.392
941.827	0.1907
951.176	0.4538
960.525	0.6327
969.874	0.7778
979.223	0.784
988.571	0.7767
997.92	0.7442
1007.27	0.6871
1016.62	0.5816
1025.97	0.626
1035.32	0.7752
1044.66	0.7729
1054.01	0.7589
1063.36	0.7421
1072.71	0.7252
1082.06	0.7093
1091.41	0.6849
1100.76	0.6395
1110.11	0.55
1119.46	0.3861
1128.81	0.6183
1138.15	0.6366
1147.5	0.5184
1156.85	0.6246
1166.2	0.7325
1175.55	0.7196
1184.9	0.7096
1194.25	0.6992
1203.6	0.6836
1212.95	0.665
1222.29	0.6372
1231.64	0.6254
1240.99	0.6147
1250.34	0.5948
1259.69	0.5756
1269.04	0.5398
1278.39	0.4881
1287.74	0.4219
1297.09	0.3221
1306.43	0.2231
1315.78	0.135
1325.13	0.3598
1334.48	0.5996
1343.83	0.626
1353.18	0.5491
1362.53	0.4154
1371.88	0.2709
1381.23	0.1281
1390.57	0.1513
1399.92	0.3842
1409.27	0.5699
1418.62	0.5779
1427.97	0.4639
1437.32	0.3043
1446.67	0.2909
1456.02	0.2389
1465.37	0.3057
1474.71	0.4591
1484.06	0.4731
1493.41	0.479
1502.76	0.4722
1512.11	0.4124
1521.46	0.3527
1530.81	0.3041
1540.16	0.3078
1549.51	0.3692
1558.85	0.425
1568.2	0.4053
1577.55	0.3511
1586.9	0.2557
1596.25	0.1119
1605.6	0.0875
1614.95	0.1344
1624.3	0.2212
1633.65	0.1566
1642.99	0.2512
1652.34	0.3571
1661.69	0.4613
1671.04	0.5445
1680.39	0.6165
1689.74	0.6597
1699.09	0.7181
1708.44	0.7491
1717.79	0.777
1727.14	0.795
1736.48	0.812
1745.83	0.8169
1755.18	0.8266
1764.53	0.829
1773.88	0.829
1783.23	0.825
1792.58	0.821
1801.93	0.8142
1811.28	0.809
1820.62	0.8125
1829.97	0.8205
1839.32	0.827
1848.67	0.828
1858.02	0.8247
1867.37	0.8197
1876.72	0.815
1886.07	0.8086
1895.42	0.8008
1904.76	0.797
1914.11	0.796
1923.46	0.799
1932.81	0.8
1942.16	0.8
1951.51	0.797
1960.86	0.795
1970.21	0.784
1979.56	0.78
1988.9	0.7763
1998.25	0.7607
2007.6	0.7569
2016.95	0.7429
2026.3	0.74
2035.65	0.7333
2045	0.7229
2054.35	0.7083
2063.7	0.7006
2073.04	0.6846
2082.39	0.6599
2091.74	0.6439
2101.09	0.6316
2110.44	0.5982
2119.79	0.5559
2129.14	0.5341
2138.49	0.5768
2147.84	0.6064
2157.18	0.6227
2166.53	0.6324
2175.88	0.6417
2185.23	0.646
2194.58	0.6497
2203.93	0.65
2213.28	0.645
2222.63	0.6356
2231.98	0.6276
2241.33	0.619
2250.67	0.614
2260.02	0.6063
2269.37	0.601
2278.72	0.5876
2288.07	0.5857
2297.42	0.583
2306.77	0.5593
2316.12	0.5433
2325.47	0.5326
2334.81	0.52
2344.16	0.5126
2353.51	0.5046
2362.86	0.503
2372.21	0.502
2381.56	0.4899
2390.91	0.4699
2400.26	0.4553
2409.61	0.447
2418.95	0.441
2428.3	0.4363
2437.65	0.4249
2447	0.4093
2456.35	0.4003
2465.7	0.3893
2475.05	0.3786
2484.4	0.3666
2493.75	0.3533
2503.09	0.3413
2512.44	0.3293
2521.79	0.3149
2531.14	0.2989
2540.49	0.2829
2549.84	0.2679
2559.19	0.2523
2568.54	0.2366
2577.89	0.2226
2587.23	0.2126
2596.58	0.2023
2605.93	0.1943
2615.28	0.192
2624.63	0.191
2633.98	0.196
2643.33	0.199
2652.68	0.2
2662.03	0.198
2671.37	0.1913
2680.72	0.1823
2690.07	0.1692
2699.42	0.1616
2708.77	0.1603
2718.12	0.157
2727.47	0.1536
2736.82	0.149
2746.17	0.144
2755.52	0.1363
2764.86	0.1256
2774.21	0.1139
2783.56	0.1073
2792.91	0.103
2802.26	0.0976
2811.61	0.088
2820.96	0.0843
2830.31	0.08
2839.66	0.081
2849	0.082
2858.35	0.0864
2867.7	0.0904
2877.05	0.0944
2886.4	0.097
2895.75	0.1037
2905.1	0.1087
2914.45	0.112
2923.8	0.111
2933.14	0.112
2942.49	0.112
2951.84	0.1144
2961.19	0.117
2970.54	0.1207
2979.89	0.127
2989.24	0.1317
2998.59	0.1327
3007.94	0.135
3017.28	0.137
3026.63	0.14
3035.98	0.1437
3045.33	0.1487
3054.68	0.1557
3064.03	0.1661
3073.38	0.172
3082.73	0.175
3092.08	0.176
3101.42	0.176
3110.77	0.1774
3120.12	0.18
3129.47	0.1894
3138.82	0.196
3148.17	0.2014
3157.52	0.2154
3166.87	0.2347
3176.22	0.2638
3185.56	0.2747
3194.91	0.2947
3204.26	0.3067
3213.61	0.3147
3222.96	0.3227
3232.31	0.3307
3241.66	0.3514
3251.01	0.3634
3260.36	0.3755
3269.71	0.3927
3279.05	0.4047
3288.4	0.4191
3297.75	0.4357
3307.1	0.4437
3316.45	0.4487
3325.8	0.4517
3335.15	0.457
3344.5	0.4637
3353.85	0.4677
3363.19	0.475
3372.54	0.4837
3381.89	0.489
3391.24	0.491
3400.59	0.4951
3409.94	0.5014
3419.29	0.5227
3428.64	0.5314
3437.99	0.548
3447.33	0.559
3456.68	0.5771
3466.03	0.5937
3475.38	0.6058
3484.73	0.6298
3494.08	0.6444
3503.43	0.6644
3512.78	0.6737
3522.13	0.6874
3531.47	0.7017
3540.82	0.7114
3550.17	0.7231
3559.52	0.7401
3568.87	0.7628
3578.22	0.7864
3587.57	0.7967
3596.92	0.8077
3606.27	0.813
3615.61	0.8184
3624.96	0.823
3634.31	0.8277
3643.66	0.832
3653.01	0.834
3662.36	0.834
3671.71	0.834
3681.06	0.834
3690.41	0.834
3699.75	0.832
3709.1	0.832
3718.45	0.832
3727.8	0.8313
3737.15	0.8374
3746.5	0.843
3755.85	0.846
3765.2	0.846
3774.55	0.846
3783.89	0.846
3793.24	0.846
3802.59	0.846
3811.94	0.846
3821.29	0.844
3830.64	0.846
3839.99	0.847
3849.34	0.847
3858.69	0.847
3868.04	0.8446
3877.38	0.844
3886.73	0.844
3896.08	0.847
3905.43	0.848
3914.78	0.848
3924.13	0.85
3933.48	0.851
3942.83	0.851
3952.18	0.851
3961.52	0.847
3970.87	0.847
3980.22	0.8494
3989.57	0.8473
3998.92	0.844
4008.27	0.8518
4017.62	0.8637
4026.97	0.868
4036.32	0.8747
4045.66	0.8988
4055.01	0.958
