Infrared Spectrum: Ethanol, 2-ethoxy-
Formula: C 4 H 10 O 2
CAS: 110-80-5
State: gas
Origin: Sadtler Research Labs Under US-EPA Contract
1/CM	ABSORBANCE
450	0.0190384
462	0.0247633
474	0.0228994
486	0.0198373
498	0.0167751
510	0.0260947
522	0.03821
534	0.047929
546	0.0315532
558	0.0154438
570	0.00865384
582	0.00772189
594	0.00452662
606	0.00359467
618	0.00252958
630	0.00252958
642	0.00372781
654	0.00266272
666	0.00346154
678	0.00426035
690	0.00399408
702	0.00133136
714	0.00119822
726	0.000532544
738	0.00239645
750	0.00306213
762	0.00718934
774	0.0131805
786	0.0232988
798	0.0370118
810	0.0516568
822	0.0620414
834	0.0597781
846	0.0533875
858	0.0559171
870	0.0836094
882	0.120887
894	0.13034
906	0.12395
918	0.10784
930	0.0888017
942	0.0609763
954	0.0375444
966	0.0358136
978	0.0435355
990	0.0597781
1002	0.0878698
1014	0.137396
1026	0.221006
1038	0.36426
1050	0.643979
1062	0.919171
1074	0.858195
1086	0.545991
1098	0.427233
1110	0.62281
1122	1.04991
1134	1.33136
1146	0.972958
1158	0.4496
1170	0.295429
1182	0.221272
1194	0.16642
1206	0.170547
1218	0.169748
1230	0.161361
1242	0.149778
1254	0.138994
1266	0.130074
1278	0.118757
1290	0.105843
1302	0.0927958
1314	0.0806804
1326	0.0845414
1338	0.147914
1350	0.275059
1362	0.301154
1374	0.26787
1386	0.307145
1398	0.253624
1410	0.216745
1422	0.148846
1434	0.100385
1446	0.0946597
1458	0.125814
1470	0.125547
1482	0.0789496
1494	0.049926
1506	0.0276923
1518	0.0133136
1530	0.0081213
1542	0.00532544
1554	0.00346154
1566	0.00266272
1578	0.00292899
1590	0.00199704
1602	0.00159763
1614	0.00119822
1626	0.000798816
1638	0.00066568
1650	0.00133136
1662	0.000399408
1674	0.0014645
1686	0.00119822
1698	0.00226331
1710	0.00266272
1722	0.00639053
1734	0.0125148
1746	0.0314201
1758	0.0384763
1770	0.0230325
1782	0.0133136
1794	0.00745562
1806	0.00359467
1818	0.00106509
1830	0
1842	0.000399408
1854	0.000931952
1866	0.00133136
1878	0.00239645
1890	0.0033284
1902	0.0047929
1914	0.00745562
1926	0.0113166
1938	0.0158432
1950	0.0190384
1962	0.0183728
1974	0.0138461
1986	0.00878698
1998	0.00559171
2010	0.00372781
2022	0.00239645
2034	0.0014645
2046	0.00133136
2058	0.0014645
2070	0.00226331
2082	0.00266272
2094	0.00292899
2106	0.00306213
2118	0.00359467
2130	0.00505917
2142	0.00639053
2154	0.00639053
2166	0.00559171
2178	0.00439349
2190	0.00266272
2202	0.0014645
2214	0.00119822
2226	0.00159763
2238	0.00199704
2250	0.00252958
2262	0.00266272
2274	0.00266272
2286	0.0018639
2298	0.00066568
2310	0
2322	0
2334	0.000133136
2346	0.000133136
2358	0.000133136
2370	0.000798816
2382	0.000266272
2394	0.00066568
2406	0.00119822
2418	0.00173077
2430	0.0014645
2442	0.0014645
2454	0.0014645
2466	0.00119822
2478	0.000798816
2490	0.000266272
2502	0.000399408
2514	0.000798816
2526	0.00159763
2538	0.00226331
2550	0.00279586
2562	0.00292899
2574	0.0033284
2586	0.00439349
2598	0.00625739
2610	0.00772189
2622	0.0081213
2634	0.0085207
2646	0.00918638
2658	0.011716
2670	0.0161095
2682	0.0226331
2694	0.0284911
2706	0.035281
2718	0.0416716
2730	0.0477958
2742	0.0512574
2754	0.0553846
2766	0.0632396
2778	0.0772189
2790	0.0953254
2802	0.114497
2814	0.130473
2826	0.158565
2838	0.232855
2850	0.384763
2862	0.598313
2874	0.822248
2886	0.890946
2898	0.745828
2910	0.59605
2922	0.55531
2934	0.624541
2946	0.640251
2958	0.623476
2970	0.605902
2982	0.578343
2994	0.436154
3006	0.207692
3018	0.0950591
3030	0.0492603
3042	0.0335503
3054	0.0260947
3066	0.0191716
3078	0.0134467
3090	0.00985206
3102	0.00785502
3114	0.00718934
3126	0.00612426
3138	0.00505917
3150	0.00452662
3162	0.00452662
3174	0.00412722
3186	0.00492603
3198	0.00532544
3210	0.00545858
3222	0.00465976
3234	0.00346154
3246	0.00226331
3258	0.00266272
3270	0.00213018
3282	0.0014645
3294	0.00119822
3306	0.000798816
3318	0.00066568
3330	0.000798816
3342	0.00066568
3354	0.000532544
3366	0.000133136
3378	0.00066568
3390	0
3402	0.000931952
3414	0.00159763
3426	0.00199704
3438	0.00159763
3450	0.0014645
3462	0.0014645
3474	0.00266272
3486	0.00412722
3498	0.0047929
3510	0.00439349
3522	0.00412722
3534	0.00426035
3546	0.00505917
3558	0.00585798
3570	0.0066568
3582	0.00732248
3594	0.0142456
3606	0.0368787
3618	0.0869378
3630	0.180799
3642	0.170148
3654	0.0874704
3666	0.057781
3678	0.0477958
3690	0.0316864
3702	0.0162426
3714	0.00931952
3726	0.00692307
3738	0.00559171
3750	0.00599112
3762	0.00505917
3774	0.00532544
3786	0.00452662
3798	0.00173077
3810	0.0014645
3822	0
3834	0
3846	0.000133136
3858	0.000133136
3870	0
3882	0
3894	0
3906	0.000798816
3918	0
3930	0
3942	0.000399408
3954	0.00106509
3966	0.00306213
