Infrared Spectrum: Methane, dibromo-
Formula: C H2 Br2
CAS: 74-95-3
State: GAS (30 mmHg, N2 ADDED, TOTAL PRESSURE 600 mmHg)
Class: COBLENTZ
Instrument: DOW KBr FOREPRISM-GRATING
Instrument parameters: GRATING CHANGED AT 5.0, 7.5, 15.0 MICRON
Sampling: TRANSMISSION
Path length: 5 CM
Resolution: 2
Origin: DOW CHEMICAL COMPANY
1/CM	TRANSMITTANCE
453	0.8242
462	0.8238
471	0.8241
480	0.8266
489	0.8302
498	0.8299
507	0.8285
516	0.8311
525	0.8309
534	0.8277
543	0.8236
552	0.8196
561	0.8135
570	0.805
579	0.8072
588	0.7949
597	0.8154
606	0.8199
615	0.8217
624	0.8068
633	0.7582
642	0.2622
651	0.1094
660	0.2463
669	0.8387
678	0.8428
687	0.8433
696	0.8423
705	0.8421
714	0.8416
723	0.8366
732	0.8338
741	0.8325
750	0.8331
759	0.8345
768	0.8364
777	0.8296
786	0.8211
795	0.8131
804	0.8085
813	0.8122
822	0.8102
831	0.817
840	0.825
849	0.8331
858	0.8417
867	0.8479
876	0.8479
885	0.8475
894	0.8472
903	0.8471
912	0.8471
921	0.8472
930	0.8475
939	0.8486
948	0.8516
957	0.8537
966	0.8543
975	0.8549
984	0.8555
993	0.8561
1002	0.8572
1011	0.8588
1020	0.8591
1029	0.8648
1038	0.8596
1047	0.8574
1056	0.857
1065	0.8556
1074	0.8533
1083	0.8546
1092	0.8598
1101	0.8581
1110	0.8594
1119	0.8599
1128	0.8637
1137	0.8556
1146	0.8576
1155	0.8598
1164	0.8627
1173	0.8496
1182	0.6058
1191	0.1726
1200	0.0991
1209	0.8457
1218	0.8495
1227	0.8279
1236	0.8154
1245	0.8529
1254	0.8538
1263	0.8538
1272	0.8528
1281	0.8515
1290	0.8491
1299	0.8457
1308	0.8471
1317	0.8459
1326	0.8448
1335	0.8431
1344	0.8429
1353	0.8552
1362	0.8531
1371	0.8428
1380	0.8365
1389	0.8334
1398	0.8332
1407	0.8384
1416	0.8325
1425	0.8368
1434	0.8306
1443	0.8368
1452	0.8213
1461	0.8337
1470	0.8295
1479	0.8326
1488	0.8286
1497	0.8243
1506	0.7986
1515	0.8288
1524	0.8242
1533	0.8242
1542	0.8135
1551	0.832
1560	0.8131
1569	0.831
1578	0.8322
1587	0.8395
1596	0.8383
1605	0.8377
1614	0.8208
1623	0.836
1632	0.8226
1641	0.829
1650	0.7882
1659	0.835
1668	0.8241
1677	0.8358
1686	0.8363
1695	0.8036
1704	0.8363
1713	0.8142
1722	0.8397
1731	0.8125
1740	0.8369
1749	0.8318
1758	0.8335
1767	0.8234
1776	0.8339
1785	0.8317
1794	0.8292
1803	0.8346
1812	0.8364
1821	0.8344
1830	0.8337
1839	0.8288
1848	0.8384
1857	0.8366
1866	0.8345
1875	0.8379
1884	0.8379
1893	0.8363
1902	0.8344
1911	0.8319
1920	0.8348
1929	0.8378
1938	0.8367
1947	0.8373
1956	0.8382
1965	0.8391
1974	0.8399
1983	0.8402
1992	0.8405
2001	0.8412
2010	0.8417
2019	0.8422
2028	0.8427
2037	0.8429
2046	0.8427
2055	0.8425
2064	0.8423
2073	0.8423
2082	0.8424
2091	0.8425
2100	0.8425
2109	0.8424
2118	0.8423
2127	0.8421
2136	0.8418
2145	0.8414
2154	0.8412
2163	0.8408
2172	0.8403
2181	0.8381
2190	0.8357
2199	0.8341
2208	0.8348
2217	0.837
2226	0.8401
2235	0.8434
2244	0.8464
2253	0.8483
2262	0.849
2271	0.8493
2280	0.8493
2289	0.8493
2298	0.8493
2307	0.8493
2316	0.8493
2325	0.8492
2334	0.8485
2343	0.8482
2352	0.8484
2361	0.8487
2370	0.8494
2379	0.8502
2388	0.8507
2397	0.8511
2406	0.8515
2415	0.8519
2424	0.8523
2433	0.8525
2442	0.8528
2451	0.853
2460	0.8533
2469	0.8536
2478	0.8539
2487	0.8541
2496	0.8541
2505	0.8541
2514	0.8541
2523	0.8541
2532	0.8536
2541	0.853
2550	0.8524
2559	0.8513
2568	0.8491
2577	0.8451
2586	0.8422
2595	0.8453
2604	0.8533
2613	0.8546
2622	0.8551
2631	0.8547
2640	0.8543
2649	0.8545
2658	0.8547
2667	0.8551
2676	0.8556
2685	0.8561
2694	0.8569
2703	0.8577
2712	0.8573
2721	0.8568
2730	0.8564
2739	0.856
2748	0.8557
2757	0.8554
2766	0.8553
2775	0.8551
2784	0.855
2793	0.8549
2802	0.8549
2811	0.8549
2820	0.8549
2829	0.8572
2838	0.8628
2847	0.8631
2856	0.8582
2865	0.8587
2874	0.8606
2883	0.8633
2892	0.8681
2901	0.8728
2910	0.8737
2919	0.8704
2928	0.8638
2937	0.8597
2946	0.8545
2955	0.8486
2964	0.8429
2973	0.838
2982	0.8324
2991	0.8253
3000	0.827
3009	0.8293
3018	0.832
3027	0.8372
3036	0.8425
3045	0.8448
3054	0.8436
3063	0.8408
3072	0.8388
3081	0.8425
3090	0.8465
3099	0.849
3108	0.8507
3117	0.8519
3126	0.8527
3135	0.8528
3144	0.8529
3153	0.8533
3162	0.8539
3171	0.8545
3180	0.8552
3189	0.856
3198	0.8568
3207	0.8575
3216	0.8583
3225	0.8589
3234	0.8597
3243	0.86
3252	0.8603
3261	0.8606
3270	0.8609
3279	0.8611
3288	0.8615
3297	0.8619
3306	0.8624
3315	0.8628
3324	0.8633
3333	0.8637
3342	0.8639
3351	0.864
3360	0.8642
3369	0.8645
3378	0.8651
3387	0.8655
3396	0.866
3405	0.8665
3414	0.8665
3423	0.8664
3432	0.8663
3441	0.8662
3450	0.8662
3459	0.8655
3468	0.8649
3477	0.8642
3486	0.8638
3495	0.8638
3504	0.8638
3513	0.8638
3522	0.8638
3531	0.8637
3540	0.8637
3549	0.8637
3558	0.8634
3567	0.8627
3576	0.8618
3585	0.8606
3594	0.8599
3603	0.8593
3612	0.8594
3621	0.8598
3630	0.8597
3639	0.8568
3648	0.8556
3657	0.8558
3666	0.8566
3675	0.8576
3684	0.8597
3693	0.8609
3702	0.8612
3711	0.8599
3720	0.8581
3729	0.8613
3738	0.8644
3747	0.8649
3756	0.865
3765	0.865
3774	0.8649
3783	0.8646
