Infrared Spectrum: Methane, dibromo-
Formula: C H 2 Br 2
CAS: 74-95-3
State: gas
Origin: Sadtler Research Labs Under US-EPA Contract
1/CM	ABSORBANCE
450	0
462	0.0295445
474	0.0363151
486	0.0348379
498	0.0322527
510	0.0262207
522	0.0290521
534	0.0327451
546	0.0372999
558	0.0441936
570	0.0529339
582	0.0505949
594	0.0558883
606	0.0545342
618	0.079647
630	0.290275
642	1.02889
654	0.954287
666	0.196471
678	0.0231432
690	0.0279442
702	0.0285597
714	0.0262207
726	0.0291752
738	0.0323758
750	0.0322527
762	0.03016
774	0.0288059
786	0.0395157
798	0.045917
810	0.0551497
822	0.0478867
834	0.0462864
846	0.038654
858	0.032622
870	0.0295445
882	0.0272055
894	0.0262207
906	0.0267131
918	0.02659
930	0.0269593
942	0.0259745
954	0.0260976
966	0.02659
978	0.0260976
990	0.0252359
1002	0.0257283
1014	0.025359
1026	0.0264669
1038	0.0260976
1050	0.0263438
1062	0.0256052
1074	0.0256052
1086	0.0257283
1098	0.0259745
1110	0.0254821
1122	0.0254821
1134	0.025359
1146	0.0263438
1158	0.0267131
1170	0.038654
1182	0.316495
1194	0.895567
1206	0.589905
1218	0.0515797
1230	0.0588428
1242	0.0456708
1254	0.0248666
1266	0.0247435
1278	0.025359
1290	0.0244973
1302	0.0251128
1314	0.0244973
1326	0.0243742
1338	0.0247435
1350	0.0256052
1362	0.0288059
1374	0.0273286
1386	0.0247435
1398	0.0243742
1410	0.0244973
1422	0.0243742
1434	0.0240049
1446	0.0238818
1458	0.0235125
1470	0.0240049
1482	0.0240049
1494	0.0238818
1506	0.0238818
1518	0.0233894
1530	0.0236356
1542	0.0240049
1554	0.0233894
1566	0.0237587
1578	0.0238818
1590	0.0235125
1602	0.0236356
1614	0.0231432
1626	0.022897
1638	0.0233894
1650	0.0235125
1662	0.022897
1674	0.0231432
1686	0.0231432
1698	0.0227739
1710	0.0231432
1722	0.0226508
1734	0.0235125
1746	0.0225277
1758	0.0230201
1770	0.022897
1782	0.0237587
1794	0.0225277
1806	0.022897
1818	0.022897
1830	0.0225277
1842	0.0225277
1854	0.0227739
1866	0.0222815
1878	0.0225277
1890	0.0226508
1902	0.0236356
1914	0.0247435
1926	0.0233894
1938	0.0219122
1950	0.0221584
1962	0.0219122
1974	0.0224046
1986	0.0226508
1998	0.0225277
2010	0.0224046
2022	0.0224046
2034	0.0221584
2046	0.0222815
2058	0.0221584
2070	0.0217891
2082	0.021666
2094	0.021666
2106	0.0214197
2118	0.0217891
2130	0.0217891
2142	0.0222815
2154	0.0226508
2166	0.0237587
2178	0.025359
2190	0.0269593
2202	0.0281904
2214	0.0262207
2226	0.0256052
2238	0.024128
2250	0.0227739
2262	0.0221584
2274	0.0224046
2286	0.0227739
2298	0.0217891
2310	0.0211735
2322	0.0206811
2334	0.020558
2346	0.0211735
2358	0.0211735
2370	0.0227739
2382	0.022897
2394	0.022897
2406	0.0215428
2418	0.0215428
2430	0.0210504
2442	0.0201887
2454	0.0200656
2466	0.020558
2478	0.0201887
2490	0.0203118
2502	0.0200656
2514	0.0196963
2526	0.0196963
2538	0.0198194
2550	0.0198194
2562	0.0203118
2574	0.0212966
2586	0.0254821
2598	0.0269593
2610	0.0221584
2622	0.0201887
2634	0.0198194
2646	0.0198194
2658	0.0204349
2670	0.0201887
2682	0.0200656
2694	0.0203118
2706	0.0200656
2718	0.0201887
2730	0.0206811
2742	0.0209273
2754	0.0206811
2766	0.0212966
2778	0.020558
2790	0.0201887
2802	0.0204349
2814	0.020558
2826	0.0206811
2838	0.020558
2850	0.0199425
2862	0.0203118
2874	0.0203118
2886	0.0201887
2898	0.0201887
2910	0.0199425
2922	0.0200656
2934	0.0204349
2946	0.0210504
2958	0.0221584
2970	0.0244973
2982	0.0284366
2994	0.032622
3006	0.0368075
3018	0.0358227
3030	0.0331144
3042	0.0297907
3054	0.0278211
3066	0.0274517
3078	0.0302831
3090	0.0274517
3102	0.0252359
3114	0.0230201
3126	0.0215428
3138	0.0206811
3150	0.0199425
3162	0.0201887
3174	0.0206811
3186	0.0201887
3198	0.0199425
3210	0.0201887
3222	0.0201887
3234	0.020558
3246	0.0200656
3258	0.0203118
3270	0.0203118
3282	0.020558
3294	0.0204349
3306	0.0198194
3318	0.0203118
3330	0.020558
3342	0.0199425
3354	0.0209273
3366	0.0203118
3378	0.0206811
3390	0.0201887
3402	0.0204349
3414	0.0206811
3426	0.0200656
3438	0.0199425
3450	0.0201887
3462	0.0211735
3474	0.0200656
3486	0.020558
3498	0.0204349
3510	0.0206811
3522	0.0201887
3534	0.020558
3546	0.0204349
3558	0.0214197
3570	0.0211735
3582	0.0211735
3594	0.0212966
3606	0.0211735
3618	0.020558
3630	0.0219122
3642	0.0214197
3654	0.0225277
3666	0.0214197
3678	0.0215428
3690	0.0204349
3702	0.0204349
3714	0.0210504
3726	0.0210504
3738	0.0209273
3750	0.0224046
3762	0.0206811
3774	0.0210504
3786	0.0210504
3798	0.0206811
3810	0.0203118
3822	0.0224046
3834	0.0206811
3846	0.020558
3858	0.0225277
3870	0.021666
3882	0.0221584
3894	0.0235125
3906	0.0224046
3918	0.0219122
3930	0.0214197
3942	0.0211735
3954	0.0209273
3966	0.0204349
