Infrared Spectrum: Propanenitrile, 2-methyl-
Formula: C 4 H 7 N
CAS: 78-82-0
State: gas
Origin: Sadtler Research Labs Under US-EPA Contract
1/CM	ABSORBANCE
450	0.00212347
462	0.00338607
474	0.0032139
486	0.00378781
498	0.00923995
510	0.00378781
522	0.00505041
534	0.00774779
546	0.00562432
558	0.00332868
570	0.00527997
582	0.00556693
594	0.00235303
606	0.0012626
618	0.00263999
630	0.00195129
642	0.00292694
654	0.00292694
666	0.00154956
678	0.00241042
690	0.00229564
702	0.00275477
714	0.00728866
726	0.0107321
738	0.0122243
750	0.0100434
762	0.00499302
774	0.00436172
786	0.00332868
798	0.0038452
810	0.00373041
822	0.0038452
834	0.00275477
846	0.00269738
858	0.00263999
870	0.00263999
882	0.00407476
894	0.00516519
906	0.00814952
918	0.0121095
930	0.0124538
942	0.0131425
954	0.00866604
966	0.00516519
978	0.0038452
990	0.00298433
1002	0.00286955
1014	0.00286955
1026	0.00373041
1038	0.00424693
1050	0.00482084
1062	0.00642779
1074	0.0114208
1086	0.0274329
1098	0.0522258
1110	0.0649092
1122	0.0456258
1134	0.0192834
1146	0.0130851
1158	0.0254242
1170	0.0254242
1182	0.0200868
1194	0.00929734
1206	0.00350085
1218	0.00298433
1230	0.00395998
1242	0.00493563
1254	0.0057391
1266	0.00671475
1278	0.0083217
1290	0.0111339
1302	0.0223825
1314	0.0623266
1326	0.061064
1338	0.0416659
1350	0.0192834
1362	0.025252
1374	0.0382224
1386	0.0580797
1398	0.0612362
1410	0.0285807
1422	0.0241616
1434	0.042125
1446	0.0746657
1458	0.0950395
1470	0.0996882
1482	0.090276
1494	0.056358
1506	0.025826
1518	0.010273
1530	0.00562432
1542	0.00430433
1554	0.00361563
1566	0.00241042
1578	0.00327129
1590	0.0032139
1602	0.0032139
1614	0.00309911
1626	0.00332868
1638	0.00395998
1650	0.00476345
1662	0.00533736
1674	0.00499302
1686	0.00430433
1698	0.00327129
1710	0.00212347
1722	0.0018939
1734	0.00218086
1746	0.00137738
1758	0.000975647
1770	0.000860865
1782	0.000918256
1794	0.000803474
1806	0.000918256
1818	0.00109043
1830	0.0012626
1842	0.0012626
1854	0.00137738
1866	0.0012626
1878	0.00131999
1890	0.00120521
1902	0.00120521
1914	0.00120521
1926	0.000688692
1938	0.00114782
1950	0.000803474
1962	0.000803474
1974	0.000688692
1986	0.000688692
1998	0.000631301
2010	0.00109043
2022	0.00149217
2034	0.00200869
2046	0.00183651
2058	0.0018939
2070	0.000975647
2082	0.000401737
2094	0.000286955
2106	0.000172173
2118	0.000459128
2130	0.000401737
2142	0.000344346
2154	0.00057391
2166	0.000516519
2178	0.000803474
2190	0.000286955
2202	0.00120521
2214	0.00241042
2226	0.00522258
2238	0.0107321
2250	0.0146921
2262	0.0119373
2274	0.0057391
2286	0.00223825
2298	0.00195129
2310	0.00137738
2322	0
2334	0
2346	0
2358	0.000172173
2370	0.00143477
2382	0.00160695
2394	0.0025252
2406	0.00298433
2418	0.00292694
2430	0.00355824
2442	0.00286955
2454	0.00241042
2466	0.00241042
2478	0.00241042
2490	0.0032139
2502	0.00350085
2514	0.00344346
2526	0.00241042
2538	0.00223825
2550	0.00292694
2562	0.00482084
2574	0.00482084
2586	0.00527997
2598	0.00487823
2610	0.00482084
2622	0.00493563
2634	0.00373041
2646	0.00241042
2658	0.00114782
2670	0.000516519
2682	0.00206608
2694	0.00390259
2706	0.00436172
2718	0.00453389
2730	0.00436172
2742	0.00550954
2754	0.00642779
2766	0.00734605
2778	0.00872343
2790	0.00929734
2802	0.010273
2814	0.0101008
2826	0.0111339
2838	0.0121669
2850	0.0136591
2862	0.0217512
2874	0.0551528
2886	0.0829874
2898	0.0998603
2910	0.10382
2922	0.12098
2934	0.14365
2946	0.168213
2958	0.179462
2970	0.241616
2982	0.403459
2994	0.418782
3006	0.345781
3018	0.114897
3030	0.0277772
3042	0.0095843
3054	0.0063704
3066	0.0063704
3078	0.0063704
3090	0.00671475
3102	0.00642779
3114	0.00774779
3126	0.00797735
3138	0.00883821
3150	0.00929734
3162	0.0111339
3174	0.0122817
3186	0.0149217
3198	0.0131425
3210	0.00987125
3222	0.00539475
3234	0.00338607
3246	0.00327129
3258	0.00304172
3270	0.00212347
3282	0.000114782
3294	0.000172173
3306	0.00149217
3318	0.00390259
3330	0.00395998
3342	0.0044765
3354	0.00395998
3366	0.0038452
3378	0.0025252
3390	0.00218086
3402	0.00172173
3414	0.0012626
3426	0.000803474
3438	0.00114782
3450	0.00143477
3462	0.00149217
3474	0.00057391
3486	0.00160695
3498	0.0012626
3510	0.00143477
3522	0.0025826
3534	0.00246781
3546	0.00200869
3558	0.00212347
3570	0.00206608
3582	0.00160695
3594	0.000688692
3606	0.000114782
3618	0.000746083
3630	0.000286955
3642	0.00114782
3654	0.00149217
3666	0.00223825
3678	0.00327129
3690	0.00229564
3702	0.00304172
3714	0.00235303
3726	0.00212347
3738	0.00338607
3750	0.00304172
3762	0.00332868
3774	0.00241042
3786	0.00246781
3798	0.00235303
3810	0.00286955
3822	0.00246781
3834	0.0025252
3846	0.00263999
3858	0.00304172
3870	0.00309911
3882	0.00246781
3894	0.00275477
3906	0.00206608
3918	0.00166434
3930	0.000975647
3942	0.00218086
3954	0.00281216
3966	0.00149217
