Infrared Spectrum: Propargyl ethyl sulphide
Formula: C 5 H 8 S
CAS: 7310-92-1
State: gas
Origin: EPA-IR VAPOR PHASE LIBRARY
1/CM	ABSORBANCE
549.8	0.001326
559.445	0
569.09	0.0014569
578.734	0.0016904
588.379	0.002575
598.024	0.003015
607.669	0.006305
617.313	0.014805
626.958	0.034355
636.603	0.067165
646.248	0.043075
655.893	0.018895
665.537	0.008455
675.182	0.004795
684.827	0.003125
694.472	0.003825
704.116	0.005095
713.761	0.006495
723.406	0.006115
733.051	0.003645
742.695	0.002435
752.34	0.002295
761.985	0.001975
771.63	0.002615
781.275	0.0017569
790.919	0.0016896
800.564	0.002365
810.209	0.00129
819.854	0.0011947
829.498	0.0015018
839.143	0.001576
848.788	0.0016671
858.433	0.00097744
868.078	0.0017879
877.722	0.001965
887.367	0.0015108
897.012	0.002015
906.657	0.0014843
916.301	0.002425
925.946	0.001526
935.591	0.002785
945.236	0.003015
954.88	0.004395
964.525	0.003915
974.17	0.003835
983.815	0.003265
993.46	0.002635
1003.1	0.002175
1012.75	0.002435
1022.39	0.0017117
1032.04	0.0016741
1041.68	0.001985
1051.33	0.002415
1060.97	0.002875
1070.62	0.0018955
1080.26	0.000456
1089.91	0.002255
1099.55	0.002215
1109.2	0.0012978
1118.84	0.0016928
1128.49	0.002485
1138.13	0.002465
1147.78	0.0017027
1157.42	0.002835
1167.07	0.003235
1176.71	0.002775
1186.36	0.0016967
1196	0.003855
1205.64	0.003025
1215.29	0.008185
1224.93	0.014725
1234.58	0.017445
1244.22	0.021115
1253.87	0.019395
1263.51	0.020375
1273.16	0.014005
1282.8	0.008495
1292.45	0.004195
1302.09	0.002815
1311.74	0.002575
1321.38	0.002215
1331.03	0.0017739
1340.67	0.0015256
1350.32	0.0016544
1359.96	0.002265
1369.61	0.002955
1379.25	0.003795
1388.9	0.004265
1398.54	0.004285
1408.18	0.005465
1417.83	0.006215
1427.47	0.006445
1437.12	0.005865
1446.76	0.005885
1456.41	0.005855
1466.05	0.004435
1475.7	0.003695
1485.34	0.002925
1494.99	0.002325
1504.63	0.002165
1514.28	0.0015745
1523.92	0.0015514
1533.57	0.0014349
1543.21	0.0012955
1552.86	0.0012036
1562.5	0.0015323
1572.15	0.001402
1581.79	0.001326
1591.44	0.0012742
1601.08	0.0010505
1610.73	0.0013118
1620.37	0.0010452
1630.01	0.0014323
1639.66	0.0010979
1649.3	0.0008437
1658.95	0.0010489
1668.59	0.00099895
1678.24	0.0008614
1687.88	0.00101153
1697.53	0.001104
1707.17	0.0010821
1716.82	0.0010102
1726.46	0.0011558
1736.11	0.00096727
1745.75	0.00100125
1755.4	0.00099775
1765.04	0.00099305
1774.69	0.0010254
1784.33	0.0012513
1793.98	0.000848
1803.62	0.00094763
1813.27	0.0008304
1822.91	0.00097216
1832.55	0.001058
1842.2	0.0009118
1851.84	0.001129
1861.49	0.001053
1871.13	0.0008595
1880.78	0.0011249
1890.42	0.00095537
1900.07	0.000682
1909.71	0.00096878
1919.36	0.0012092
1929	0.0011217
1938.65	0.0010281
1948.29	0.0010819
1957.94	0.00095318
1967.58	0.000993
1977.23	0.0011215
1986.87	0.0010965
1996.52	0.0011256
2006.16	0.0011927
2015.81	0.0010822
2025.45	0.0011668
2035.1	0.0011713
2044.74	0.0014817
2054.38	0.001033
2064.03	0.0010421
2073.67	0.0013365
2083.32	0.0011431
2092.96	0.0016569
2102.61	0.0015626
2112.25	0.002025
2121.9	0.002285
2131.54	0.0016111
2141.19	0.0012994
2150.83	0.001155
2160.48	0.001068
2170.12	0.0010571
2179.77	0.0010379
2189.41	0.0010643
2199.06	0.0011048
2208.7	0.0010897
2218.35	0.00096638
2227.99	0.00095276
2237.64	0.0011467
2247.28	0.0011108
2256.92	0.0013397
2266.57	0.00095792
2276.21	0.0012676
2285.86	0.0008532
2295.5	0.0012289
2305.15	0.0008578
2314.79	0.00099387
2324.44	0.0011448
2334.08	0.0010278
2343.73	0.0011789
2353.37	0.000924124
2363.02	0.0008751
2372.66	0.0011139
2382.31	0.0011139
2391.95	0.0008689
2401.6	0.0011003
2411.24	0.00097617
2420.89	0.0011451
2430.53	0.00095649
2440.18	0.0011729
2449.82	0.0012353
2459.47	0.0010699
2469.11	0.0011432
2478.75	0.0010498
2488.4	0.00092012
2498.04	0.000795
2507.69	0.00100973
2517.33	0.00097521
2526.98	0.00101233
2536.62	0.0009058
2546.27	0.0008982
2555.91	0.000815
2565.56	0.000678
2575.2	0.00098629
2584.85	0.0013617
2594.49	0.0010422
2604.14	0.0008561
2613.78	0.0011691
2623.43	0.0011614
2633.07	0.0010922
2642.72	0.0012917
2652.36	0.00097731
2662.01	0.0015296
2671.65	0.0012548
2681.29	0.0010426
2690.94	0.0016516
2700.58	0.0014902
2710.23	0.0013679
2719.87	0.0015837
2729.52	0.00164
2739.16	0.001325
2748.81	0.0013834
2758.45	0.0014359
2768.1	0.0015533
2777.74	0.0015095
2787.39	0.0012785
2797.03	0.0015907
2806.68	0.001896
2816.32	0.002545
2825.97	0.003015
2835.61	0.003485
2845.26	0.003275
2854.9	0.004465
2864.55	0.005555
2874.19	0.007625
2883.84	0.009535
2893.48	0.010255
2903.12	0.011305
2912.77	0.013745
2922.41	0.018725
2932.06	0.022905
2941.7	0.022285
2951.35	0.019575
2960.99	0.017425
2970.64	0.019455
2980.28	0.019705
2989.93	0.015145
2999.57	0.009245
3009.22	0.005565
3018.86	0.003235
3028.51	0.002975
3038.15	0.002245
3047.8	0.0018994
3057.44	0.002145
3067.09	0.0019174
3076.73	0.0016344
3086.38	0.0017571
3096.02	0.0012919
3105.67	0.0011801
3115.31	0.0012965
3124.95	0.0013419
3134.6	0.0016295
3144.24	0.0018758
3153.89	0.0014544
3163.53	0.0015215
3173.18	0.001558
3182.82	0.0008352
3192.47	0.0014943
3202.11	0.000656
3211.76	0.0014379
3221.4	0.0015076
3231.05	0.0010929
3240.69	0.0012056
3250.34	0.0013636
3259.98	0.002095
3269.63	0.002185
3279.27	0.004215
3288.92	0.005875
3298.56	0.011065
3308.21	0.015185
3317.85	0.026115
3327.49	0.025595
3337.14	0.023185
3346.78	0.007835
3356.43	0.003805
3366.07	0.003185
3375.72	0.001925
3385.36	0.0014184
3395.01	0.0014172
3404.65	0.0011158
3414.3	0.00099862
3423.94	0.0009037
3433.59	0.0011495
3443.23	0.0012069
3452.88	0.000666
3462.52	0.000685
3472.17	0.00077
3481.81	0.000665
3491.46	0.000625
3501.1	0.0010021
3510.75	0.000512
3520.39	0.0011804
3530.04	0.000695
3539.68	0.000638
3549.32	0.0013555
3558.97	0.0010271
3568.61	0.0012847
3578.26	0.000708
3587.9	0.00042
3597.55	0.000405
3607.19	0.0008754
3616.84	0.000756
3626.48	0.000808
3636.13	0.001374
3645.77	0.0010857
3655.42	0.0015536
3665.06	0.000818
3674.71	0.0013593
3684.35	0.00100554
3694	0.0016428
3703.64	0.000738
3713.29	0.0016776
3722.93	0.0016369
3732.58	0.0014038
3742.22	0.0008457
3751.86	0.000278
3761.51	0.0011763
3771.15	0.00097595
3780.8	0.0013513
3790.44	0.0010671
3800.09	0.000482
3809.73	0.001363
3819.38	0.000673
3829.02	0.000494
3838.67	0.0008924
3848.31	0.000692
3857.96	0.0013036
3867.6	0.000736
3877.25	3.2e-05
3886.89	0.00101306
3896.54	0.0015449
3906.18	0.000749
3915.83	0.0017516
3925.47	0.0015855
3935.12	0.001424
3944.76	0.0018098
3954.41	0.0013584
3964.05	0.0015208
3973.69	0.0013553
3983.34	0.0013992
3992.98	0.001131
