Infrared Spectrum: 2-Bromopropane
Formula: C3 H7 Br
CAS: 75-26-3
State: SOLUTION (10% CCl4 FOR 3800-1340, 10% CS2 FOR 1340-400 CM^-^1)
Class: COBLENTZ III
Instrument: DOW KBr FOREPRISM-GRATING
Instrument parameters: BLAZED AT 3.5, 12.0, 20.0 MICRON AND CHANGED AT 5.0, 7.5, 14.9 MICRON
Sampling: TRANSMISSION
Path length: 0.011 CM, 0.011 CM
Resolution: 2
Origin: DOW CHEMICAL COMPANY
1/CM	TRANSMITTANCE
3806	0.8509
3797	0.8514
3788	0.8539
3779	0.8539
3770	0.8545
3761	0.8542
3752	0.8539
3743	0.8534
3734	0.8537
3725	0.8538
3716	0.8536
3707	0.8544
3698	0.8542
3689	0.8526
3680	0.8508
3671	0.8502
3662	0.8495
3653	0.849
3644	0.849
3635	0.8489
3626	0.85
3617	0.8499
3608	0.849
3599	0.8493
3590	0.8508
3581	0.8512
3572	0.8511
3563	0.8506
3554	0.8507
3545	0.8514
3536	0.852
3527	0.8509
3518	0.8509
3509	0.851
3500	0.8511
3491	0.8511
3482	0.8512
3473	0.8513
3464	0.8513
3455	0.8514
3446	0.8515
3437	0.8515
3428	0.8516
3419	0.8518
3410	0.852
3401	0.8522
3392	0.8522
3383	0.8523
3374	0.8525
3365	0.8526
3356	0.8526
3347	0.8526
3338	0.8537
3329	0.8525
3320	0.8523
3311	0.8528
3302	0.8507
3293	0.8498
3284	0.8487
3275	0.8481
3266	0.8448
3257	0.8419
3248	0.8389
3239	0.8363
3230	0.8337
3221	0.8326
3212	0.8341
3203	0.8351
3194	0.8385
3185	0.8404
3176	0.842
3167	0.8421
3158	0.8414
3149	0.8388
3140	0.8355
3131	0.8349
3122	0.8346
3113	0.8345
3104	0.8353
3095	0.8393
3086	0.8364
3077	0.836
3068	0.8353
3059	0.8327
3050	0.8309
3041	0.8305
3032	0.8202
3023	0.7998
3014	0.745
3005	0.6605
2996	0.2061
2987	0.2258
2978	0.2723
2969	0.323
2960	0.451
2951	0.5795
2942	0.6714
2933	0.5694
2924	0.38
2915	0.4185
2906	0.5437
2897	0.6073
2888	0.6201
2879	0.6595
2870	0.6804
2861	0.6131
2852	0.6212
2843	0.7719
2834	0.8072
2825	0.8186
2816	0.8205
2807	0.8209
2798	0.8314
2789	0.8371
2780	0.842
2771	0.8439
2762	0.8388
2753	0.8372
2744	0.8402
2735	0.8362
2726	0.8148
2717	0.8317
2708	0.8434
2699	0.85
2690	0.8527
2681	0.8541
2672	0.8549
2663	0.8554
2654	0.8569
2645	0.8553
2636	0.8524
2627	0.8505
2618	0.8512
2609	0.8543
2600	0.856
2591	0.8576
2582	0.8587
2573	0.8598
2564	0.8607
2555	0.8616
2546	0.8621
2537	0.8627
2528	0.8648
2519	0.8664
2510	0.8649
2501	0.8616
2492	0.8644
2483	0.8676
2474	0.8697
2465	0.8707
2456	0.8712
2447	0.8727
2438	0.8695
2429	0.8676
2420	0.8686
2411	0.8693
2402	0.8704
2393	0.8693
2384	0.8698
2375	0.8711
2366	0.8688
2357	0.8687
2348	0.8682
2339	0.8658
2330	0.8667
2321	0.867
2312	0.863
2303	0.8599
2294	0.8648
2285	0.8636
2276	0.8603
2267	0.856
2258	0.8523
2249	0.8569
2240	0.8629
2231	0.8684
2222	0.872
2213	0.8734
2204	0.8731
2195	0.8715
2186	0.8708
2177	0.871
2168	0.8689
2159	0.8693
2150	0.8703
2141	0.8718
2132	0.8737
2123	0.875
2114	0.8757
2105	0.8751
2096	0.8741
2087	0.8733
2078	0.8726
2069	0.8718
2060	0.8716
2051	0.8721
2042	0.871
2033	0.8702
2024	0.8706
2015	0.8694
2006	0.8682
1997	0.8748
1988	0.8814
1979	0.8863
1970	0.8896
1961	0.8932
1952	0.8938
1943	0.8918
1934	0.8899
1925	0.8893
1916	0.8897
1907	0.892
1898	0.8905
1889	0.8856
1880	0.8844
1871	0.8865
1862	0.8886
1853	0.8902
1844	0.8907
1835	0.8905
1826	0.8907
1817	0.889
1808	0.8894
1799	0.8917
1790	0.8936
1781	0.8925
1772	0.8906
1763	0.8882
1754	0.8833
1745	0.8838
1736	0.8854
1727	0.8816
1718	0.8798
1709	0.8807
1700	0.8776
1691	0.8777
1682	0.8789
1673	0.8807
1664	0.8809
1655	0.8819
1646	0.8816
1637	0.883
1628	0.8852
1619	0.8869
1610	0.8904
1601	0.8813
1592	0.8411
1583	0.804
1574	0.7954
1565	0.7809
1556	0.7448
1547	0.7238
1538	0.7334
1529	0.7622
1520	0.7878
1511	0.7997
1502	0.8127
1493	0.825
1484	0.8229
1475	0.7749
1466	0.4148
1457	0.5104
1448	0.6886
1439	0.5075
1430	0.6497
1421	0.7824
1412	0.818
1403	0.8351
1394	0.8162
1385	0.4265
1376	0.6537
1367	0.5603
1358	0.8068
1349	0.8653
1340	0.8766
1331	0.8425
1322	0.8442
1313	0.8576
1304	0.8681
1295	0.8722
1286	0.8644
1277	0.8685
1268	0.8664
1259	0.8585
1250	0.8328
1241	0.7672
1232	0.3788
1223	-0.0036
1214	0.4561
1205	0.7327
1196	0.8013
1187	0.8221
1178	0.7995
1169	0.7341
1160	0.5056
1151	0.2242
1142	0.5948
1133	0.773
1124	0.7708
1115	0.8372
1106	0.886
1097	0.8981
1088	0.9001
1079	0.898
1070	0.891
1061	0.8789
1052	0.8437
1043	0.5328
1034	0.4613
1025	0.7961
1016	0.8782
1007	0.8972
998	0.9007
989	0.9063
980	0.9107
971	0.9128
962	0.9119
953	0.9048
944	0.8833
935	0.8533
926	0.8469
917	0.8906
908	0.9028
899	0.8926
890	0.8462
881	0.3853
872	0.7327
863	0.8418
854	0.8606
845	0.886
836	0.9086
827	0.9175
818	0.9187
809	0.9194
800	0.9202
791	0.9217
782	0.918
773	0.9156
764	0.9152
755	0.9176
746	0.9195
737	0.9202
728	0.9223
719	0.9255
710	0.9263
701	0.9286
692	0.9313
683	0.933
674	0.9306
665	0.908
656	0.8906
647	0.8994
638	0.9021
629	0.9102
620	0.9212
611	0.9282
602	0.9167
593	0.9187
584	0.9328
575	0.9206
566	0.9114
557	0.8701
548	0.6497
539	0.2444
530	0.7528
521	0.8789
512	0.9044
503	0.9133
494	0.9174
485	0.9191
476	0.9184
467	0.9124
458	0.8997
449	0.8829
440	0.8601
431	0.8292
422	0.7856
413	0.6644
404	0.5194
395	0.4551
386	0.4078
