Infrared Spectrum: PROPANE, 2-BROMO-
Formula: C3 H7 Br
CAS: 75-26-3
State: GAS
Class: COBLENTZ
Instrument: PERKIN-ELMER 21 (GRATING)
Instrument parameters: FILTER CHANGE ABOUT 1085 CM^-^1
Sampling: TRANSMISSION
Path length: 10 CM
Resolution: 4
Origin: SOUTHERN RESEARCH INSTITUTE
1/CM	TRANSMITTANCE
602.349	0.807
610.552	0.804
618.755	0.804
626.958	0.81
635.161	0.8219
643.365	0.828
651.568	0.827
659.771	0.8201
667.974	0.83
676.177	0.8527
684.38	0.867
692.583	0.873
700.786	0.8778
708.99	0.8772
717.193	0.8702
725.396	0.869
733.599	0.8715
741.802	0.8857
750.005	0.889
758.208	0.8853
766.411	0.8776
774.615	0.864
782.818	0.871
791.021	0.8776
799.224	0.8856
807.427	0.891
815.63	0.887
823.833	0.885
832.036	0.879
840.239	0.875
848.443	0.8684
856.646	0.8454
864.849	0.722
873.052	0.4409
881.255	0.1814
889.458	0.2249
897.661	0.1913
905.864	0.7528
914.068	0.7918
922.271	0.7473
930.474	0.7164
938.677	0.7086
946.88	0.7274
955.083	0.7966
963.286	0.8359
971.489	0.8586
979.692	0.8766
987.896	0.8787
996.099	0.8762
1004.3	0.8788
1012.5	0.8686
1020.71	0.8109
1028.91	0.5674
1037.11	0.2207
1045.32	0.1255
1053.52	0.117
1061.72	0.3385
1069.93	0.7873
1078.13	0.8385
1086.33	0.871
1094.54	0.8478
1102.74	0.8357
1110.94	0.7657
1119.15	0.6914
1127.35	0.584
1135.55	0.5052
1143.75	0.168
1151.96	0.0295
1160.16	0.008
1168.36	0.0109
1176.57	0.1049
1184.77	0.3158
1192.97	0.5896
1201.18	0.661
1209.38	0.5345
1217.58	0.1172
1225.79	0.0042
1233.99	0.0066
1242.19	0.008
1250.4	0.2006
1258.6	0.626
1266.8	0.8191
1275	0.8157
1283.21	0.7692
1291.41	0.759
1299.61	0.7757
1307.82	0.79
1316.02	0.7607
1324.22	0.7645
1332.43	0.7628
1340.63	0.785
1348.83	0.7655
1357.04	0.6714
1365.24	0.4288
1373.44	0.0984
1381.65	0.0824
1389.85	0.0235
1398.05	0.1373
1406.25	0.3084
1414.46	0.5005
1422.66	0.5523
1430.86	0.3602
1439.07	0.2229
1447.27	0.1399
1455.47	0.1112
1463.68	0.0796
1471.88	0.0823
1480.08	0.1563
1488.29	0.2675
1496.49	0.4929
1504.69	0.7356
1512.9	0.8503
1521.1	0.859
1529.3	0.8652
1537.5	0.8736
1545.71	0.885
1553.91	0.8798
1562.11	0.877
1570.32	0.8708
1578.52	0.864
1586.72	0.8591
1594.93	0.8519
1603.13	0.8651
1611.33	0.8709
1619.54	0.87
1627.74	0.873
1635.94	0.869
1644.15	0.866
1652.35	0.856
1660.55	0.851
1668.75	0.8432
1676.96	0.836
1685.16	0.832
1693.36	0.837
1701.57	0.835
1709.77	0.836
1717.97	0.832
1726.18	0.836
1734.38	0.842
1742.58	0.8433
1750.79	0.842
1758.99	0.8454
1767.19	0.8518
1775.4	0.8655
1783.6	0.8633
1791.8	0.863
1800	0.8646
1808.21	0.859
1816.41	0.859
1824.61	0.862
1832.82	0.8656
1841.02	0.867
1849.22	0.869
1857.43	0.8664
1865.63	0.857
1873.83	0.849
1882.04	0.845
1890.24	0.8485
1898.44	0.8525
1906.65	0.87
1914.85	0.864
1923.05	0.863
1931.25	0.86
1939.46	0.8594
1947.66	0.8653
1955.86	0.8714
1964.07	0.873
1972.27	0.8724
1980.47	0.8739
1988.68	0.871
1996.88	0.867
2005.08	0.862
2013.29	0.864
2021.49	0.8643
2029.69	0.8653
2037.89	0.859
2046.1	0.858
2054.3	0.8593
2062.5	0.866
2070.71	0.8647
2078.91	0.8667
2087.11	0.8607
2095.32	0.8657
2103.52	0.8597
2111.72	0.8623
2119.93	0.869
2128.13	0.8713
2136.33	0.8727
2144.54	0.8703
2152.74	0.8717
2160.94	0.867
2169.14	0.867
2177.35	0.8663
2185.55	0.859
2193.75	0.858
2201.96	0.858
2210.16	0.859
2218.36	0.8567
2226.57	0.8433
2234.77	0.8283
2242.97	0.8077
2251.18	0.7673
2259.38	0.7413
2267.58	0.7537
2275.79	0.7967
2283.99	0.833
2292.19	0.838
2300.39	0.8443
2308.6	0.8483
2316.8	0.8523
2325	0.8557
2333.21	0.858
2341.41	0.8457
2349.61	0.838
2357.82	0.8367
2366.02	0.839
2374.22	0.833
2382.43	0.8303
2390.63	0.837
2398.83	0.8467
2407.04	0.841
2415.24	0.841
2423.44	0.837
2431.64	0.8317
2439.85	0.8343
2448.05	0.839
2456.25	0.837
2464.46	0.833
2472.66	0.8183
2480.86	0.8037
2489.07	0.799
2497.27	0.795
2505.47	0.7977
2513.68	0.8027
2521.88	0.826
2530.08	0.823
2538.29	0.822
2546.49	0.821
2554.69	0.818
2562.89	0.817
2571.1	0.821
2579.3	0.824
2587.5	0.8163
2595.71	0.811
2603.91	0.809
2612.11	0.7983
2620.32	0.7883
2628.52	0.781
2636.72	0.7913
2644.93	0.811
2653.13	0.8163
2661.33	0.8187
2669.54	0.8123
2677.74	0.809
2685.94	0.808
2694.14	0.807
2702.35	0.7997
2710.55	0.7707
2718.75	0.7196
2726.96	0.6683
2735.16	0.666
2743.36	0.6767
2751.57	0.7337
2759.77	0.7533
2767.97	0.763
2776.18	0.771
2784.38	0.736
2792.58	0.7113
2800.79	0.6737
2808.99	0.6607
2817.19	0.646
2825.39	0.5883
2833.6	0.4463
2841.8	0.2734
2850	0.121
2858.21	0.0963
2866.41	0.082
2874.61	0.086
2882.82	0.0787
2891.02	0.0727
2899.22	0.028
2907.43	0.023
2915.63	0.024
2923.83	0.0307
2932.03	0.0463
2940.24	0.0563
2948.44	0.046
2956.64	0.0167
2964.85	0.0253
2973.05	0.023
2981.25	0.0303
2989.46	0.0537
2997.66	0.1127
3005.86	0.254
3014.07	0.412
3022.27	0.6357
3030.47	0.74
3038.68	0.769
3046.88	0.7893
3055.08	0.796
3063.28	0.809
3071.49	0.814
3079.69	0.8147
3087.89	0.811
3096.1	0.8087
3104.3	0.804
3112.5	0.8007
3120.71	0.7937
3128.91	0.787
3137.11	0.774
3145.32	0.7683
3153.52	0.747
3161.72	0.7253
3169.93	0.7063
3178.13	0.6857
3186.33	0.6837
3194.53	0.6843
3202.74	0.6913
3210.94	0.7007
3219.14	0.717
3227.35	0.7273
3235.55	0.738
3243.75	0.7573
3251.96	0.765
3260.16	0.781
3268.36	0.7893
3276.57	0.7983
3284.77	0.8083
3292.97	0.814
3301.18	0.816
3309.38	0.815
3317.58	0.814
3325.78	0.811
3333.99	0.809
3342.19	0.806
3350.39	0.8
3358.6	0.7967
3366.8	0.794
3375	0.7873
3383.21	0.7653
3391.41	0.7733
3399.61	0.7887
3407.82	0.7993
3416.02	0.807
3424.22	0.808
3432.43	0.8047
3440.63	0.807
3448.83	0.808
3457.03	0.8013
3465.24	0.7947
3473.44	0.801
3481.64	0.7943
3489.85	0.792
3498.05	0.79
3506.25	0.7907
3514.46	0.794
3522.66	0.795
3530.86	0.794
3539.07	0.808
3547.27	0.809
3555.47	0.809
3563.68	0.811
3571.88	0.811
3580.08	0.8117
3588.28	0.8153
3596.49	0.8173
3604.69	0.8107
3612.89	0.813
3621.1	0.8123
3629.3	0.815
3637.5	0.8147
3645.71	0.8153
3653.91	0.816
3662.11	0.817
3670.32	0.818
3678.52	0.816
3686.72	0.817
3694.93	0.818
3703.13	0.814
3711.33	0.814
3719.53	0.8087
3727.74	0.804
3735.94	0.801
3744.14	0.799
3752.35	0.801
3760.55	0.7997
3768.75	0.7963
3776.96	0.7953
3785.16	0.795
3793.36	0.795
