Infrared Spectrum: 1-Bromo-2-fluoroethane
Formula: C 2 H 4 Br F
CAS: 762-49-2
State: gas
Instrument: HP-GC/MS/IRD
Origin: NIST Mass Spectrometry Data Center
1/CM	ABSORBANCE
550	0.0010108
562	0.0009804
574	0.0018582
586	0.0021052
598	0.0020634
610	0.0004256
622	0.000342
634	0.0007638
646	0.0015276
658	0.0025346
670	0.0038912
682	0.0064714
694	0.0067298
706	0.002888
718	0.000836
730	0.0003268
742	0.0001216
754	5.32e-05
766	0.0001178
778	0.0002242
790	0.0003458
802	0.0009158
814	0.0012768
826	0.0013034
838	0.0008854
850	0.000551
862	0.000475
874	0.0005054
886	0.0006194
898	0.0008474
910	0.0010488
922	0.0011932
934	0.0016226
946	0.0019874
958	0.002166
970	0.0026562
982	0.004579
994	0.0101612
1006	0.0228152
1018	0.0355414
1030	0.0346978
1042	0.0195662
1054	0.0161576
1066	0.016682
1078	0.0151202
1090	0.0106286
1102	0.0073074
1114	0.0031426
1126	0.0015656
1138	0.000988
1150	0.0010944
1162	0.0014326
1174	0.0014022
1186	0.0014478
1198	0.0017936
1210	0.0029602
1222	0.003648
1234	0.0023332
1246	0.0023066
1258	0.002926
1270	0.0060268
1282	0.006441
1294	0.0053732
1306	0.0015086
1318	0.0006536
1330	0.0004978
1342	0.0005358
1354	0.0008284
1366	0.0016606
1378	0.0029032
1390	0.002945
1402	0.0025346
1414	0.002356
1426	0.0027968
1438	0.0035074
1450	0.0030096
1462	0.0027284
1474	0.0017518
1486	0.001159
1498	0.00076
1510	0.000456
1522	0.0002698
1534	0.000171
1546	0.0001216
1558	3.8e-05
1570	4.56e-05
1582	5.7e-05
1594	3.8e-05
1606	7.6e-05
1618	5.7e-05
1630	4.94e-05
1642	3.04e-05
1654	2.66e-05
1666	7.6e-06
1678	3.8e-06
1690	2.66e-05
1702	8.36e-05
1714	0.0001064
1726	0.0001672
1738	0.0001634
1750	0.0001482
1762	0.0001102
1774	3.8e-05
1786	7.6e-06
1798	1.14e-05
1810	1.52e-05
1822	2.66e-05
1834	2.66e-05
1846	1.9e-05
1858	3.8e-05
1870	7.6e-05
1882	0.0001102
1894	0.000114
1906	0.0001216
1918	8.74e-05
1930	6.84e-05
1942	4.94e-05
1954	5.32e-05
1966	5.32e-05
1978	9.5e-05
1990	0.000133
2002	0.0001976
2014	0.0002812
2026	0.0003572
2038	0.0003724
2050	0.0002622
2062	0.0001824
2074	0.0001938
2086	0.0001938
2098	0.0001748
2110	0.0001292
2122	0.0001026
2134	5.32e-05
2146	7.22e-05
2158	0.0001026
2170	0.0001444
2182	0.00019
2194	0.0002014
2206	0.0002318
2218	0.0002584
2230	0.0002394
2242	0.0002318
2254	0.0001862
2266	0.0001634
2278	0.0001406
2290	0.0001102
2302	6.08e-05
2314	8.36e-05
2326	6.46e-05
2338	5.7e-05
2350	8.36e-05
2362	9.12e-05
2374	0.0001064
2386	0.0001178
2398	0.000133
2410	0.0001558
2422	0.0001368
2434	0.0001786
2446	0.0001824
2458	0.00019
2470	0.0002014
2482	0.00019
2494	0.0001406
2506	0.0001368
2518	0.0001634
2530	0.000171
2542	0.0001558
2554	0.0001786
2566	0.0001216
2578	9.12e-05
2590	7.98e-05
2602	9.12e-05
2614	8.36e-05
2626	0.0001482
2638	0.0001748
2650	0.0002166
2662	0.0002546
2674	0.000228
2686	0.0001786
2698	0.000209
2710	0.0002508
2722	0.0002812
2734	0.000323
2746	0.0004446
2758	0.000475
2770	0.0004674
2782	0.0003762
2794	0.0003116
2806	0.0003686
2818	0.0004826
2830	0.000646
2842	0.000798
2854	0.0009272
2866	0.0013262
2878	0.0023104
2890	0.0035948
2902	0.0039254
2914	0.0039824
2926	0.0042218
2938	0.005586
2950	0.0068704
2962	0.008569
2974	0.0098154
2986	0.0099902
2998	0.0074822
3010	0.0051148
3022	0.0035644
3034	0.0024054
3046	0.0015694
3058	0.0010412
3070	0.0006878
3082	0.0005396
3094	0.0003572
3106	0.0003458
3118	0.0003154
3130	0.0002356
3142	0.0002052
3154	0.0001596
3166	0.0001976
3178	0.0002318
3190	0.0001786
3202	0.0002774
3214	0.0002318
3226	0.000209
3238	0.0002014
3250	0.0001938
3262	0.0001292
3274	0.0001862
3286	0.0001976
3298	0.0001292
3310	0.0001596
3322	0.0001482
3334	0.000114
3346	0.0001368
3358	0.0001064
3370	8.36e-05
3382	0.000171
3394	0.0002128
3406	0.0001292
3418	0.000152
3430	0.0001406
3442	0.0001596
3454	0.0002166
3466	0.0001444
3478	7.22e-05
3490	0.0001026
3502	0.0001102
3514	0.0001862
3526	0.0001254
3538	0.000152
3550	0.0001634
3562	0.00019
3574	0.0001368
3586	0.000133
3598	0.0001406
3610	0.0002052
3622	0.0001748
3634	0.0001026
3646	0.0001558
3658	0.000133
3670	9.12e-05
3682	0.0001216
3694	0.0001064
3706	0.0001292
3718	0.0001064
3730	0.0001596
3742	0.0001672
3754	0.0001748
3766	0.0001748
3778	0.0001748
3790	0.0002432
3802	0.0001558
3814	0.000114
3826	0.0001634
3838	0.0001786
