Infrared Spectrum: Isobutane
Formula: C 4 H 10
CAS: 75-28-5
State: gas
Origin: Sadtler Research Labs Under US-EPA Contract
1/CM	ABSORBANCE
450	0.00726214
462	0.00402011
474	0.0047982
486	0.00389043
498	0.000778086
510	0.00427947
522	0.0020749
534	0.00246394
546	0.00246394
558	0.00350139
570	0.00363107
582	0.00285298
594	0.00350139
606	0.00363107
618	0.00311234
630	0.00324203
642	0.00259362
654	0.00246394
666	0.00453884
678	0.00194522
690	0.00402011
702	0.00116713
714	0.00311234
726	0.00337171
738	0.00233426
750	0.0027233
762	0.00246394
774	0.00363107
786	0.00324203
798	0.00635437
810	0.00363107
822	0.00337171
834	0.00233426
846	0.0027233
858	0.00194522
870	0.00233426
882	0.0027233
894	0.00505756
906	0.00881831
918	0.00855895
930	0.00972608
942	0.00570596
954	0.00298266
966	0.0027233
978	0.0020749
990	0.00233426
1002	0.00220458
1014	0.00246394
1026	0.00259362
1038	0.00168585
1050	0.00181553
1062	0.00181553
1074	0.0020749
1086	0.00220458
1098	0.0020749
1110	0.00298266
1122	0.00337171
1134	0.00440915
1146	0.0075215
1158	0.0194522
1170	0.0324203
1182	0.0337171
1194	0.0075215
1206	0.00350139
1218	0.00414979
1230	0.00402011
1242	0.00389043
1254	0.00414979
1266	0.00389043
1278	0.00466852
1290	0.00570596
1302	0.00791054
1314	0.0163398
1326	0.0322906
1338	0.039423
1350	0.0400714
1362	0.0748259
1374	0.0909064
1386	0.0968717
1398	0.0647108
1410	0.0173773
1422	0.015432
1434	0.0202302
1446	0.0492788
1458	0.072751
1470	0.0680825
1482	0.103874
1494	0.0526505
1506	0.0366997
1518	0.0125791
1530	0.00324203
1542	0.000907767
1554	0.000907767
1566	0.00142649
1578	0.00246394
1590	0.00129681
1602	0.00220458
1614	0.00246394
1626	0.00155617
1638	0.00181553
1650	0.00129681
1662	0.00168585
1674	0.00181553
1686	0.00142649
1698	0.0020749
1710	0.00259362
1722	0.0027233
1734	0.000907767
1746	0.000648405
1758	0.00129681
1770	0.00103745
1782	0.000518724
1794	0.000129681
1806	0.000907767
1818	0.00116713
1830	0.00142649
1842	0.00103745
1854	0.00142649
1866	0.000778086
1878	0.000907767
1890	0.000648405
1902	0.000648405
1914	0.000129681
1926	0.000389043
1938	0.000778086
1950	0.000778086
1962	0.00155617
1974	0.00129681
1986	0.000778086
1998	0.000518724
2010	0.000518724
2022	0.000259362
2034	0.000389043
2046	0.000518724
2058	0.000389043
2070	0.000778086
2082	0.000259362
2094	0.000648405
2106	0.000389043
2118	0.00103745
2130	0.000907767
2142	0.00103745
2154	0.00168585
2166	0.00142649
2178	0.00155617
2190	0.000518724
2202	0
2214	0.000259362
2226	0.000129681
2238	0.000648405
2250	0.00103745
2262	0.00103745
2274	0.00103745
2286	0.00168585
2298	0.00116713
2310	0.00168585
2322	0.00129681
2334	0.00168585
2346	0.0020749
2358	0.0020749
2370	0.0027233
2382	0.00194522
2394	0.0020749
2406	0.00194522
2418	0.00142649
2430	0.00129681
2442	0.00142649
2454	0.00142649
2466	0.00142649
2478	0.00181553
2490	0.00181553
2502	0.00259362
2514	0.00233426
2526	0.00233426
2538	0.00220458
2550	0.00181553
2562	0.00194522
2574	0.00233426
2586	0.00298266
2598	0.00466852
2610	0.00700277
2622	0.00907767
2634	0.00778086
2646	0.00765118
2658	0.00596533
2670	0.00376075
2682	0.00337171
2694	0.00453884
2706	0.00700277
2718	0.00959639
2730	0.0151727
2742	0.0129681
2754	0.0153024
2766	0.0129681
2778	0.0138759
2790	0.0149133
2802	0.0191928
2814	0.0202302
2826	0.0281408
2838	0.0325499
2850	0.0530395
2862	0.155488
2874	0.204248
2886	0.246005
2898	0.336522
2910	0.262215
2922	0.32135
2934	0.428855
2946	0.690681
2958	0.824382
2970	0.953026
2982	0.667727
2994	0.256639
3006	0.0500569
3018	0.0186741
3030	0.0123197
3042	0.0108932
3054	0.00972608
3066	0.0102448
3078	0.0105042
3090	0.00998544
3102	0.00959639
3114	0.00920735
3126	0.00985576
3138	0.0107635
3150	0.0123197
3162	0.0133571
3174	0.0149133
3186	0.0133571
3198	0.0129681
3210	0.0116713
3222	0.00959639
3234	0.00570596
3246	0.00324203
3258	0.00129681
3270	0.00155617
3282	0.00142649
3294	0.00246394
3306	0.00350139
3318	0.00453884
3330	0.00622469
3342	0.0054466
3354	0.00518724
3366	0.00337171
3378	0.00311234
3390	0.00376075
3402	0.00311234
3414	0.00194522
3426	0.00220458
3438	0.00129681
3450	0.00103745
3462	0.00116713
3474	0.00168585
3486	0.000259362
3498	0.00103745
3510	0.000518724
3522	0.00116713
3534	0.000778086
3546	0.000907767
3558	0.000778086
3570	0.000907767
3582	0.00116713
3594	0.00116713
3606	0.000518724
3618	0.000518724
3630	0.000778086
3642	0.00103745
3654	0.00181553
3666	0.000518724
3678	0.000907767
3690	0.00155617
3702	0.00142649
3714	0.00103745
3726	0.000907767
3738	0.00181553
3750	0.00116713
3762	0.00181553
3774	0.00298266
3786	0.00259362
3798	0.00233426
3810	0.0027233
3822	0.00350139
3834	0.00389043
3846	0.00194522
3858	0.00285298
3870	0.0027233
3882	0.00298266
3894	0.00220458
3906	0.0020749
3918	0.00194522
3930	0.00129681
3942	0.00116713
3954	0.00129681
3966	0
