Infrared Spectrum: 3,3-Dichloro-2-propene-1-ol
Formula: C3 H4 Cl2 O
CAS: 3039-55-2
State: SOLUTION (10% CCl4 FOR 3800-1300, 11% CS2 FOR 1300-630, AND 10% CCl4 FOR 630-250) VS SOLVENT
Class: COBLENTZ III
Instrument: PERKIN-ELMER 521 (GRATING)
Instrument parameters: FILTERS AT 3150, 2500, 2000, 1150, 700, 410. GRATING CHANGES: 2000, 630
Path length: 0.012 CM, 0.010 CM, AND 0.010 CM
Resolution: 2
Origin: DOW CORNING CORP.
1/CM	TRANSMITTANCE
250	0.7341
258.836	0.7329
267.672	0.7248
276.508	0.7215
285.344	0.727
294.18	0.7419
303.016	0.7568
311.852	0.7705
320.688	0.781
329.524	0.7907
338.36	0.7963
347.196	0.7986
356.031	0.7999
364.867	0.7973
373.703	0.7887
382.539	0.7756
391.375	0.7606
400.211	0.754
409.047	0.7703
417.883	0.7653
426.719	0.7438
435.555	0.7172
444.391	0.7083
453.227	0.717
462.063	0.7411
470.899	0.753
479.735	0.7512
488.571	0.7483
497.407	0.7466
506.243	0.7477
515.079	0.7487
523.915	0.7461
532.751	0.7407
541.587	0.734
550.423	0.7281
559.258	0.7254
568.094	0.7264
576.93	0.7153
585.766	0.6985
594.602	0.6774
603.438	0.6484
612.274	0.6259
621.11	0.6071
629.946	0.6226
638.782	0.6162
647.618	0.6184
656.454	0.6436
665.29	0.6873
674.126	0.7212
682.962	0.7406
691.798	0.7525
700.634	0.7596
709.47	0.7644
718.306	0.7766
727.142	0.787
735.978	0.7914
744.814	0.7959
753.65	0.7977
762.485	0.7877
771.321	0.7564
780.157	0.7189
788.993	0.6798
797.829	0.655
806.665	0.6187
815.501	0.5831
824.337	0.5585
833.173	0.6127
842.009	0.6161
850.845	0.5364
859.681	0.2776
868.517	0.0538
877.353	0.0507
886.189	0.4366
895.025	0.668
903.861	0.7567
912.697	0.7758
921.533	0.7692
930.369	0.7312
939.205	0.5822
948.041	0.4872
956.877	0.4174
965.712	0.4809
974.548	0.6527
983.384	0.6784
992.22	0.6281
1001.06	0.4763
1009.89	0.2609
1018.73	0.1524
1027.56	0.1404
1036.4	0.1723
1045.24	0.273
1054.07	0.4221
1062.91	0.4843
1071.74	0.439
1080.58	0.3994
1089.42	0.4616
1098.25	0.6577
1107.09	0.7687
1115.92	0.8104
1124.76	0.8355
1133.6	0.8514
1142.43	0.8515
1151.27	0.8431
1160.1	0.8262
1168.94	0.8031
1177.78	0.7575
1186.61	0.7124
1195.45	0.6859
1204.28	0.6151
1213.12	0.5663
1221.96	0.5839
1230.79	0.6463
1239.63	0.6629
1248.46	0.6508
1257.3	0.6322
1266.13	0.6419
1274.97	0.6856
1283.81	0.7148
1292.64	0.7285
1301.48	0.6931
1310.31	0.6836
1319.15	0.6778
1327.99	0.6745
1336.82	0.6727
1345.66	0.6673
1354.49	0.6392
1363.33	0.6025
1372.17	0.5696
1381	0.5853
1389.84	0.6131
1398.67	0.6171
1407.51	0.6182
1416.35	0.6271
1425.18	0.643
1434.02	0.6613
1442.85	0.6644
1451.69	0.6457
1460.53	0.6669
1469.36	0.7437
1478.2	0.7844
1487.03	0.8093
1495.87	0.8235
1504.71	0.8326
1513.54	0.8362
1522.38	0.8359
1531.21	0.8334
1540.05	0.8312
1548.89	0.8313
1557.72	0.8321
1566.56	0.8331
1575.39	0.8217
1584.23	0.7839
1593.07	0.7503
1601.9	0.6827
1610.74	0.4901
1619.57	0.0865
1628.41	0.4097
1637.25	0.7553
1646.08	0.8106
1654.92	0.8337
1663.75	0.8515
1672.59	0.8663
1681.42	0.8733
1690.26	0.873
1699.1	0.8811
1707.93	0.8819
1716.77	0.8805
1725.6	0.8739
1734.44	0.8552
1743.28	0.8436
1752.11	0.8507
1760.95	0.8635
1769.78	0.8825
1778.62	0.8948
1787.46	0.8973
1796.29	0.8975
1805.13	0.8977
1813.96	0.8984
1822.8	0.8993
1831.64	0.9003
1840.47	0.9005
1849.31	0.9005
1858.14	0.8999
1866.98	0.8992
1875.82	0.8984
1884.65	0.8975
1893.49	0.8967
1902.32	0.8966
1911.16	0.8979
1920	0.898
1928.83	0.8975
1937.67	0.8965
1946.5	0.8966
1955.34	0.8967
1964.18	0.8964
1973.01	0.8962
1981.85	0.8962
1990.68	0.8971
1999.52	0.911
2008.36	0.914
2017.19	0.9124
2026.03	0.9102
2034.86	0.9072
2043.7	0.9059
2052.54	0.9063
2061.37	0.9097
2070.21	0.9112
2079.04	0.913
2087.88	0.9152
2096.71	0.9174
2105.55	0.9192
2114.39	0.9211
2123.22	0.9212
2132.06	0.9218
2140.89	0.9215
2149.73	0.9212
2158.57	0.9209
2167.4	0.9205
2176.24	0.9196
2185.07	0.9185
2193.91	0.9178
2202.75	0.9173
2211.58	0.9165
2220.42	0.915
2229.25	0.9135
2238.09	0.9125
2246.93	0.9117
2255.76	0.9109
2264.6	0.9101
2273.43	0.9094
2282.27	0.9086
2291.11	0.9078
2299.94	0.9073
2308.78	0.9068
2317.61	0.9065
2326.45	0.9059
2335.29	0.9043
2344.12	0.9025
2352.96	0.9005
2361.79	0.8984
2370.63	0.8976
2379.47	0.8974
2388.3	0.8972
2397.14	0.8964
2405.97	0.8961
2414.81	0.8958
2423.65	0.8957
2432.48	0.8957
2441.32	0.8958
2450.15	0.8959
2458.99	0.8959
2467.83	0.8961
2476.66	0.8963
2485.5	0.8966
2494.33	0.8956
2503.17	0.8932
2512	0.8918
2520.84	0.8913
2529.68	0.8903
2538.51	0.8895
2547.35	0.8889
2556.18	0.8888
2565.02	0.8888
2573.86	0.8875
2582.69	0.8843
2591.53	0.8796
2600.36	0.8745
2609.2	0.8694
2618.04	0.8651
2626.87	0.8617
2635.71	0.8615
2644.54	0.8624
2653.38	0.863
2662.22	0.8632
2671.05	0.8625
2679.89	0.8596
2688.72	0.8557
2697.56	0.8514
2706.4	0.8487
2715.23	0.8459
2724.07	0.843
2732.9	0.8399
2741.74	0.8376
2750.58	0.8352
2759.41	0.8328
2768.25	0.8305
2777.08	0.8279
2785.92	0.819
2794.76	0.8051
2803.59	0.7953
2812.43	0.785
2821.26	0.7709
2830.1	0.7542
2838.94	0.7345
2847.77	0.7111
2856.61	0.6732
2865.44	0.6341
2874.28	0.6081
2883.12	0.5618
2891.95	0.5569
2900.79	0.631
2909.62	0.6465
2918.46	0.6378
2927.29	0.6175
2936.13	0.5985
2944.97	0.578
2953.8	0.5816
2962.64	0.6321
2971.47	0.6905
2980.31	0.7449
2989.15	0.7796
2997.98	0.8002
3006.82	0.8102
3015.65	0.812
3024.49	0.8081
3033.33	0.8001
3042.16	0.7921
3051	0.7647
3059.83	0.7389
3068.67	0.7594
3077.51	0.7615
3086.34	0.7579
3095.18	0.7506
3104.01	0.7416
3112.85	0.7313
3121.69	0.7215
3130.52	0.7077
3139.36	0.6919
3148.19	0.6733
3157.03	0.6581
3165.87	0.6443
3174.7	0.6311
3183.54	0.6117
3192.37	0.5801
3201.21	0.5514
3210.05	0.524
3218.88	0.4927
3227.72	0.4638
3236.55	0.4256
3245.39	0.3931
3254.23	0.3675
3263.06	0.341
3271.9	0.3208
3280.73	0.3011
3289.57	0.2854
3298.4	0.2723
3307.24	0.2613
3316.08	0.2507
3324.91	0.2429
3333.75	0.2356
3342.58	0.2314
3351.42	0.2332
3360.26	0.2364
3369.09	0.2401
3377.93	0.2465
3386.76	0.2567
3395.6	0.2657
3404.44	0.2755
3413.27	0.2871
3422.11	0.3005
3430.94	0.3146
3439.78	0.3287
3448.62	0.3476
3457.45	0.3663
3466.29	0.3859
3475.12	0.4043
3483.96	0.4217
3492.8	0.4394
3501.63	0.4611
3510.47	0.4914
3519.3	0.5327
3528.14	0.5766
3536.98	0.6186
3545.81	0.6564
3554.65	0.6958
3563.48	0.7311
3572.32	0.7688
3581.16	0.7769
3589.99	0.7626
3598.83	0.6852
3607.66	0.6041
3616.5	0.5498
3625.34	0.6534
3634.17	0.7957
3643.01	0.8537
3651.84	0.8701
3660.68	0.8744
3669.52	0.9006
3678.35	0.9101
3687.19	0.9247
3696.02	0.9278
3704.86	0.9312
3713.69	0.9451
3722.53	0.9437
3731.37	0.929
3740.2	0.9299
3749.04	0.9304
3757.87	0.9309
