Infrared Spectrum: Dimethylamine, N-nitroso-
Formula: C2 H6 N2 O
CAS: 62-75-9
State: LIQUID (NEAT)
Class: COBLENTZ III
Instrument: PERKIN-ELMER 180 (GRATING)
Instrument parameters: GRATINGS: 2000, 1000, 500, 250 CM^-^1; FILTER CHANGE: 2970, 2000, 1485, 1000, 743, 500, 372, 250, 186 CM^-^1.
Sampling: TRANSMISSION
Path length: CAPILLARY
Resolution: 2
Origin: K. K. DEB-NCI FREDERICK CANCER RESEARCH CENTER
1/CM	TRANSMITTANCE
398	0.5572
407	0.6394
416	0.7159
425	0.8179
434	0.8493
443	0.8721
452	0.8749
461	0.8939
470	0.9176
479	0.9521
488	0.9785
497	0.9855
506	0.9882
515	0.9936
524	0.9967
533	0.9949
542	0.9983
551	1.0005
560	0.9994
569	0.9961
578	0.9913
587	0.9852
596	0.9784
605	0.9724
614	0.9702
623	0.9697
632	0.9697
641	0.97
650	0.9677
659	0.9622
668	0.948
677	0.8008
686	0.6471
695	0.9444
704	0.9684
713	0.9758
722	0.978
731	0.9799
740	0.9815
749	0.9742
758	0.9715
767	0.9734
776	0.9715
785	0.9679
794	0.9663
803	0.9685
812	0.9709
821	0.9727
830	0.9642
839	0.898
848	0.7862
857	0.9505
866	0.969
875	0.9716
884	0.9718
893	0.9714
902	0.9705
911	0.9693
920	0.9676
929	0.9645
938	0.9598
947	0.9531
956	0.944
965	0.9316
974	0.9177
983	0.9006
992	0.8719
1001	0.822
1010	0.7459
1019	0.6149
1028	0.5007
1037	0.3469
1046	0.1931
1055	0.1688
1064	0.3971
1073	0.5955
1082	0.7125
1091	0.738
1100	0.7535
1109	0.7811
1118	0.7813
1127	0.7794
1136	0.789
1145	0.7974
1154	0.817
1163	0.8327
1172	0.8441
1181	0.8499
1190	0.8459
1199	0.8363
1208	0.848
1217	0.8539
1226	0.8498
1235	0.8307
1244	0.8036
1253	0.7844
1262	0.7571
1271	0.6712
1280	0.4234
1289	0.1064
1298	0.275
1307	0.2821
1316	0.1606
1325	0.247
1334	0.4511
1343	0.6416
1352	0.7121
1361	0.7246
1370	0.7276
1379	0.6773
1388	0.5305
1397	0.4497
1406	0.2493
1415	0.3437
1424	0.5138
1433	0.3454
1442	0.1213
1451	0.1165
1460	0.2409
1469	0.3653
1478	0.4218
1487	0.5026
1496	0.6171
1505	0.679
1514	0.7378
1523	0.776
1532	0.7991
1541	0.8163
1550	0.8292
1559	0.8373
1568	0.8425
1577	0.8457
1586	0.8483
1595	0.8487
1604	0.8487
1613	0.8507
1622	0.8528
1631	0.8539
1640	0.8551
1649	0.8604
1658	0.8675
1667	0.8742
1676	0.876
1685	0.8763
1694	0.8771
1703	0.8815
1712	0.885
1721	0.8864
1730	0.8855
1739	0.8845
1748	0.8913
1757	0.8983
1766	0.9032
1775	0.9043
1784	0.9033
1793	0.9016
1802	0.9015
1811	0.9013
1820	0.9011
1829	0.9008
1838	0.9006
1847	0.9004
1856	0.9005
1865	0.8998
1874	0.8983
1883	0.8965
1892	0.8945
1901	0.8932
1910	0.8945
1919	0.8969
1928	0.8991
1937	0.9006
1946	0.8983
1955	0.8958
1964	0.8946
1973	0.8937
1982	0.8944
1991	0.8953
2000	0.8993
2009	0.9049
2018	0.9062
2027	0.9051
2036	0.903
2045	0.9009
2054	0.8989
2063	0.8968
2072	0.8947
2081	0.8925
2090	0.8911
2099	0.8906
2108	0.8902
2117	0.8901
2126	0.8902
2135	0.8903
2144	0.8904
2153	0.8906
2162	0.8909
2171	0.8911
2180	0.8913
2189	0.8915
2198	0.8919
2207	0.8925
2216	0.8931
2225	0.8931
2234	0.8919
2243	0.8906
2252	0.8894
2261	0.8885
2270	0.8877
2279	0.8868
2288	0.8864
2297	0.8862
2306	0.8859
2315	0.8857
2324	0.8854
2333	0.8846
2342	0.8839
2351	0.8831
2360	0.8825
2369	0.8824
2378	0.8823
2387	0.8822
2396	0.8821
2405	0.882
2414	0.8817
2423	0.8812
2432	0.8785
2441	0.8748
2450	0.8707
2459	0.8703
2468	0.8709
2477	0.873
2486	0.873
2495	0.873
2504	0.8728
2513	0.8708
2522	0.869
2531	0.8671
2540	0.8669
2549	0.8668
2558	0.8665
2567	0.8661
2576	0.8659
2585	0.8656
2594	0.8654
2603	0.8653
2612	0.8657
2621	0.8659
2630	0.8658
2639	0.8656
2648	0.8649
2657	0.8629
2666	0.861
2675	0.857
2684	0.8534
2693	0.85
2702	0.8471
2711	0.8449
2720	0.843
2729	0.8427
2738	0.8424
2747	0.8431
2756	0.8438
2765	0.8437
2774	0.8427
2783	0.8417
2792	0.8391
2801	0.8361
2810	0.8302
2819	0.8232
2828	0.8109
2837	0.797
2846	0.7884
2855	0.789
2864	0.791
2873	0.7868
2882	0.7743
2891	0.7601
2900	0.746
2909	0.7236
2918	0.7028
2927	0.662
2936	0.6598
2945	0.6627
2954	0.6745
2963	0.6835
2972	0.6841
2981	0.6852
2990	0.7325
2999	0.7576
3008	0.7606
3017	0.7603
3026	0.7641
3035	0.7722
3044	0.7786
3053	0.7852
3062	0.7883
3071	0.7888
3080	0.7886
3089	0.788
3098	0.7873
3107	0.7865
3116	0.7856
3125	0.7845
3134	0.783
3143	0.7814
3152	0.7799
3161	0.7783
3170	0.7765
3179	0.7747
3188	0.7728
3197	0.7709
3206	0.769
3215	0.7674
3224	0.7659
3233	0.7644
3242	0.7629
3251	0.7614
3260	0.76
3269	0.7584
3278	0.757
3287	0.7555
3296	0.7541
3305	0.7526
3314	0.7512
3323	0.7497
3332	0.7483
3341	0.7471
3350	0.746
3359	0.7448
3368	0.7436
3377	0.7424
3386	0.7413
3395	0.7401
3404	0.739
3413	0.738
3422	0.7369
3431	0.7358
3440	0.7348
3449	0.7341
3458	0.734
3467	0.7337
3476	0.7335
3485	0.7341
3494	0.7355
3503	0.7368
3512	0.7384
3521	0.7401
3530	0.7419
3539	0.7434
3548	0.7443
3557	0.7452
3566	0.7461
3575	0.7469
3584	0.7476
3593	0.7482
3602	0.7489
3611	0.7517
3620	0.7564
3629	0.7625
3638	0.7715
3647	0.7822
3656	0.7932
3665	0.8008
3674	0.8085
3683	0.8126
3692	0.8167
3701	0.8185
3710	0.8194
3719	0.8203
3728	0.8201
3737	0.8196
3746	0.8193
3755	0.8188
3764	0.8182
3773	0.8176
3782	0.8172
3791	0.8171
3800	0.817
