Infrared Spectrum: N-NITROSODIMETHYLAMINE
Formula: C2 H6 N2 O
CAS: 62-75-9
State: SOLUTION (11% IN CCl4 FOR 3800-1300, 2% IN CS2 FOR 1300-650, 11% IN CCl4 FOR 650-250 CM^-^1) VERSUS SOLVENT
Class: COBLENTZ
Instrument: PERKIN-ELMER 521 (GRATING)
Instrument parameters: FILTERS AT 3150, 2500, 2000, 1150, 700, 410; GRATING CHANGES AT 2000, 630 CM^-^1
Sampling: TRANSMISSION
Path length: 0.011, 0.011, AND 0.011 CM (CsBr CELL)
Resolution: 4
Origin: DOW CORNING CORP.
1/CM	TRANSMITTANCE
246.23	0.636
256.066	0.645
265.902	0.646
275.738	0.648
285.574	0.642
295.41	0.687
305.246	0.726
315.083	0.726
324.919	0.739
334.755	0.728
344.591	0.692
354.427	0.62
364.263	0.636
374.099	0.696
383.935	0.696
393.771	0.613
403.607	0.493
413.443	0.672
423.279	0.747
433.115	0.753
442.951	0.744
452.788	0.742
462.624	0.735
472.46	0.758
482.296	0.753
492.132	0.759
501.968	0.773
511.804	0.777
521.64	0.787
531.476	0.79
541.312	0.794
551.148	0.797
560.984	0.798
570.82	0.801
580.656	0.8
590.493	0.793
600.329	0.783
610.165	0.773
620.001	0.781
629.837	0.79
639.673	0.809
649.509	0.84
659.345	0.864
669.181	0.877
679.017	0.802
688.853	0.836
698.689	0.903
708.525	0.912
718.362	0.914
728.198	0.915
738.034	0.919
747.87	0.919
757.706	0.92
767.542	0.919
777.378	0.922
787.214	0.92
797.05	0.922
806.886	0.922
816.722	0.916
826.558	0.912
836.394	0.875
846.23	0.75
856.067	0.892
865.903	0.908
875.739	0.914
885.575	0.918
895.411	0.916
905.247	0.914
915.083	0.914
924.919	0.915
934.755	0.907
944.591	0.899
954.427	0.889
964.263	0.88
974.099	0.855
983.935	0.825
993.772	0.773
1003.61	0.673
1013.44	0.507
1023.28	0.284
1033.12	0.228
1042.95	0.464
1052.79	0.71
1062.62	0.814
1072.46	0.849
1082.3	0.873
1092.13	0.892
1101.97	0.897
1111.8	0.897
1121.64	0.907
1131.48	0.908
1141.31	0.911
1151.15	0.912
1160.98	0.908
1170.82	0.9
1180.66	0.893
1190.49	0.881
1200.33	0.869
1210.17	0.864
1220	0.855
1229.84	0.825
1239.67	0.8
1249.51	0.781
1259.35	0.724
1269.18	0.62
1279.02	0.3579
1288.85	0.2
1298.69	0.067
1308.53	0.008
1318.36	0.026
1328.2	0.189
1338.03	0.4
1347.87	0.479
1357.71	0.463
1367.54	0.463
1377.38	0.432
1387.21	0.277
1397.05	0.23
1406.89	0.013
1416.72	0.1161
1426.56	0.181
1436.39	0.022
1446.23	0
1456.07	0
1465.9	0.018
1475.74	0.065
1485.58	0.22
1495.41	0.404
1505.25	0.506
1515.08	0.547
1524.92	0.586
1534.76	0.7
1544.59	0.781
1554.43	0.789
1564.26	0.783
1574.1	0.786
1583.94	0.777
1593.77	0.758
1603.61	0.751
1613.44	0.753
1623.28	0.759
1633.12	0.767
1642.95	0.774
1652.79	0.778
1662.62	0.777
1672.46	0.738
1682.3	0.71
1692.13	0.765
1701.97	0.806
1711.8	0.812
1721.64	0.82
1731.48	0.836
1741.31	0.856
1751.15	0.869
1760.99	0.872
1770.82	0.873
1780.66	0.875
1790.49	0.875
1800.33	0.875
1810.17	0.876
1820	0.879
1829.84	0.879
1839.67	0.881
1849.51	0.881
1859.35	0.879
1869.18	0.872
1879.02	0.872
1888.85	0.876
1898.69	0.883
1908.53	0.887
1918.36	0.887
1928.2	0.887
1938.03	0.884
1947.87	0.88
1957.71	0.877
1967.54	0.869
1977.38	0.873
1987.21	0.872
1997.05	0.876
2006.89	0.895
2016.72	0.894
2026.56	0.89
2036.4	0.887
2046.23	0.884
2056.07	0.88
2065.9	0.877
2075.74	0.876
2085.58	0.878
2095.41	0.8835
2105.25	0.885
2115.08	0.8835
2124.92	0.8795
2134.76	0.881
2144.59	0.882
2154.43	0.88
2164.26	0.886
2174.1	0.888
2183.94	0.892
2193.77	0.891
2203.61	0.888
2213.44	0.886
2223.28	0.88
2233.12	0.8805
2242.95	0.8835
2252.79	0.888
2262.63	0.889
2272.46	0.889
2282.3	0.888
2292.13	0.886
2301.97	0.884
2311.81	0.882
2321.64	0.879
2331.48	0.876
2341.31	0.8805
2351.15	0.882
2360.99	0.883
2370.82	0.8845
2380.66	0.884
2390.49	0.88
2400.33	0.8765
2410.17	0.872
2420	0.862
2429.84	0.858
2439.67	0.85
2449.51	0.8505
2459.35	0.8605
2469.18	0.864
2479.02	0.8625
2488.85	0.859
2498.69	0.857
2508.53	0.857
2518.36	0.8565
2528.2	0.861
2538.04	0.866
2547.87	0.867
2557.71	0.8595
2567.54	0.8455
2577.38	0.845
2587.22	0.8515
2597.05	0.855
2606.89	0.8595
2616.72	0.8605
2626.56	0.8525
2636.4	0.853
2646.23	0.8515
2656.07	0.8475
2665.9	0.837
2675.74	0.826
2685.58	0.813
2695.41	0.8015
2705.25	0.8
2715.08	0.7955
2724.92	0.7795
2734.76	0.774
2744.59	0.774
2754.43	0.77
2764.26	0.7515
2774.1	0.744
2783.94	0.7285
2793.77	0.714
2803.61	0.724
2813.45	0.7195
2823.28	0.708
2833.12	0.6755
2842.95	0.6206
2852.79	0.589
2862.63	0.608
2872.46	0.618
2882.3	0.6065
2892.13	0.5571
2901.97	0.4328
2911.81	0.3336
2921.64	0.3344
2931.48	0.337
2941.31	0.3215
2951.15	0.312
2960.99	0.313
2970.82	0.3404
2980.66	0.4967
2990.49	0.6044
3000.33	0.663
3010.17	0.654
3020	0.6738
3029.84	0.736
3039.67	0.763
3049.51	0.776
3059.35	0.7855
3069.18	0.7945
3079.02	0.8035
3088.86	0.8095
3098.69	0.8165
3108.53	0.823
3118.36	0.8245
3128.2	0.8205
3138.04	0.821
3147.87	0.824
3157.71	0.825
3167.54	0.826
3177.38	0.827
3187.22	0.829
3197.05	0.829
3206.89	0.8295
3216.72	0.832
3226.56	0.831
3236.4	0.832
3246.23	0.832
3256.07	0.832
3265.9	0.829
3275.74	0.827
3285.58	0.825
3295.41	0.8215
3305.25	0.8165
3315.08	0.8125
3324.92	0.8095
3334.76	0.8035
3344.59	0.7965
3354.43	0.792
3364.27	0.788
3374.1	0.785
3383.94	0.782
3393.77	0.78
3403.61	0.7775
3413.45	0.775
3423.28	0.774
3433.12	0.774
3442.95	0.773
3452.79	0.772
3462.63	0.771
3472.46	0.773
3482.3	0.773
3492.13	0.773
3501.97	0.774
3511.81	0.777
3521.64	0.78
3531.48	0.7845
3541.31	0.7905
3551.15	0.7945
3560.99	0.8055
3570.82	0.8095
3580.66	0.8205
3590.49	0.825
3600.33	0.8285
3610.17	0.8335
3620	0.8395
3629.84	0.844
3639.68	0.847
3649.51	0.848
3659.35	0.846
3669.18	0.8415
3679.02	0.824
3688.86	0.8444
3698.69	0.869
3708.53	0.882
3718.36	0.886
3728.2	0.889
3738.04	0.891
3747.87	0.891
3757.71	0.891
3767.54	0.891
3777.38	0.891
3787.22	0.888
