Infrared Spectrum: N-Nitrosodimethylamine
Formula: C 2 H 6 N 2 O
CAS: 62-75-9
State: gas
Origin: Sadtler Research Labs Under US-EPA Contract
1/CM	ABSORBANCE
450	0.00443262
462	0.00421099
474	0.0045065
486	0.00435874
498	0.00295508
510	0.00509751
522	0.00605791
534	0.00650118
546	0.00472813
558	0.00443262
570	0.00435874
582	0.0038416
594	0.00273345
606	0.00568853
618	0.00310283
630	0.00347222
642	0.00458037
654	0.00620567
666	0.010786
678	0.013224
690	0.0181737
702	0.0104167
714	0.00687056
726	0.0064273
738	0.00443262
750	0.00155142
762	0.00539302
774	0.00487588
786	0.0038416
798	0.0054669
810	0.00783096
822	0.0223109
834	0.0508274
846	0.060653
858	0.0540041
870	0.0131501
882	0.00679668
894	0.00760933
906	0.00849586
918	0.0135934
930	0.019799
942	0.0285165
954	0.0472074
966	0.0850324
978	0.180777
990	0.38549
1002	0.561391
1014	0.611332
1026	0.481826
1038	0.198434
1050	0.0780141
1062	0.0466164
1074	0.0316932
1086	0.0267435
1098	0.0262263
1110	0.0257831
1122	0.029403
1134	0.0302157
1146	0.0299941
1158	0.0305112
1170	0.0296986
1182	0.0274822
1194	0.0291814
1206	0.0313238
1218	0.0378989
1230	0.0483156
1242	0.0807476
1254	0.154329
1266	0.276965
1278	0.406397
1290	0.437056
1302	0.338431
1314	0.145094
1326	0.0887263
1338	0.0689272
1350	0.0576241
1362	0.0532653
1374	0.0469858
1386	0.0437352
1398	0.0631648
1410	0.0848108
1422	0.0777186
1434	0.0764627
1446	0.0782357
1458	0.149379
1470	0.463948
1482	0.637485
1494	0.643321
1506	0.411864
1518	0.10424
1530	0.0539302
1542	0.0415928
1554	0.0241578
1566	0.0200207
1578	0.0206856
1590	0.0161052
1602	0.0137411
1614	0.0127068
1626	0.0121158
1638	0.0137411
1650	0.0134456
1662	0.0129285
1674	0.0167701
1686	0.0202423
1698	0.0169917
1710	0.00783096
1722	0.00576241
1734	0.00812647
1746	0.00458037
1758	0.00406324
1770	0.00487588
1782	0.00229019
1794	0.00531914
1806	0.0035461
1818	0.00369385
1830	0.00627955
1842	0.00701831
1854	0.00598404
1866	0.0054669
1878	0.00280733
1890	0.00199468
1902	0.000812647
1914	0.00147754
1926	0.0019208
1938	0.00310283
1950	0.00421099
1962	0.00428487
1974	0.0038416
1986	0.00325059
1998	0.00325059
2010	0.00317671
2022	0.00317671
2034	0.00273345
2046	0.00147754
2058	0.00073877
2070	0.000664893
2082	0.00118203
2094	0.000812647
2106	0.00110815
2118	0.00118203
2130	0.00110815
2142	0.00155142
2154	0.00184692
2166	0.00162529
2178	0.00110815
2190	0.000591016
2202	0.000591016
2214	0.00110815
2226	0.00110815
2238	0.00147754
2250	0.00147754
2262	0.00206856
2274	0.00206856
2286	0.00155142
2298	0.00310283
2310	0.00413711
2322	0.00627955
2334	0.00753545
2346	0.00760933
2358	0.0100473
2370	0.00820035
2382	0.00265957
2394	0.00162529
2406	0.00206856
2418	0.00221631
2430	0.00214243
2442	0.00221631
2454	0.00162529
2466	0.00162529
2478	0.00236406
2490	0.00347222
2502	0.00369385
2514	0.00369385
2526	0.00265957
2538	0.00236406
2550	0.00280733
2562	0.00273345
2574	0.00325059
2586	0.00332446
2598	0.00280733
2610	0.00236406
2622	0.00177305
2634	0.00177305
2646	0.00177305
2658	0.00169917
2670	0.00229019
2682	0.0028812
2694	0.0038416
2706	0.00458037
2718	0.00435874
2730	0.00487588
2742	0.00701831
2754	0.00997339
2766	0.0130024
2778	0.0161791
2790	0.0172872
2802	0.0198729
2814	0.0229019
2826	0.0231974
2838	0.0256353
2850	0.0299202
2862	0.0431442
2874	0.0599881
2886	0.0809692
2898	0.106457
2910	0.134456
2922	0.147606
2934	0.174793
2946	0.190677
2958	0.208038
2970	0.159131
2982	0.0995123
2994	0.0553339
3006	0.0424054
3018	0.0341312
3030	0.0330969
3042	0.0235668
3054	0.0189125
3066	0.0149232
3078	0.013815
3090	0.0116726
3102	0.00967789
3114	0.00805259
3126	0.00561465
3138	0.00465425
3150	0.00465425
3162	0.00413711
3174	0.00376773
3186	0.00302896
3198	0.00199468
3210	0.00184692
3222	0.00184692
3234	0.00118203
3246	0.000812647
3258	0.00132979
3270	0.00184692
3282	0.00184692
3294	0.0019208
3306	0.00184692
3318	0.00184692
3330	0.0019208
3342	0.00177305
3354	0.0019208
3366	0.00162529
3378	0.00140366
3390	0.000960401
3402	0.00110815
3414	0.00199468
3426	0.00140366
3438	0.00140366
3450	0.00103428
3462	0.00155142
3474	0.000960401
3486	0.00147754
3498	0.00147754
3510	0.00221631
3522	0.000517139
3534	0.00110815
3546	0.00251182
3558	0.00140366
3570	0.00376773
3582	0.00169917
3594	0.00251182
3606	0.00162529
3618	0.00317671
3630	0.004802
3642	0.00206856
3654	0.00302896
3666	0.0019208
3678	0.00428487
3690	0.0035461
3702	0.00221631
3714	0.00302896
3726	0.00265957
3738	0.00421099
3750	0.00406324
3762	0.00214243
3774	0.000960401
3786	0.000812647
3798	0.00155142
3810	0.00125591
3822	0.00236406
3834	0.0019208
3846	0.00169917
3858	0.00243794
3870	0.00184692
3882	0.00221631
3894	0.00177305
3906	0.00199468
3918	0.00184692
3930	0.00184692
3942	0.00140366
3954	0.000517139
3966	0.000591016
