Infrared Spectrum: Monoethanolamine
Formula: C 2 H 7 N O
CAS: 141-43-5
State: gas
Origin: Sadtler Research Labs Under US-EPA Contract
1/CM	ABSORBANCE
450	0.0377575
462	0.0192655
474	0.00260154
486	0.00569527
498	0.0104765
510	0.0269295
522	0.0352263
534	0.023203
546	0.0208827
558	0.00555465
570	0.00885931
582	0.0123046
594	0.0104062
606	0.0129374
618	0.0172264
630	0.0184217
642	0.021867
654	0.0285467
666	0.0346638
678	0.0457028
690	0.0620855
702	0.0766401
714	0.11039
726	0.160804
738	0.248904
750	0.359716
762	0.459278
774	0.447325
786	0.455692
798	0.350365
810	0.2591
822	0.176202
834	0.171772
846	0.18935
858	0.209389
870	0.170999
882	0.157921
894	0.119671
906	0.0907025
918	0.0575152
930	0.0320623
942	0.0182811
954	0.0258748
966	0.0544918
978	0.0796635
990	0.12389
1002	0.204256
1014	0.328779
1026	0.492325
1038	0.571566
1050	0.540629
1062	0.436708
1074	0.321045
1086	0.299318
1098	0.256287
1110	0.204749
1122	0.0980149
1134	0.0348748
1146	0.0165936
1158	0.016453
1170	0.0210233
1182	0.0245389
1194	0.0326951
1206	0.0524528
1218	0.0726323
1230	0.0834603
1242	0.0797338
1254	0.0674995
1266	0.0531559
1278	0.0460544
1290	0.0409216
1302	0.0390935
1314	0.0435934
1326	0.056109
1338	0.0807885
1350	0.111023
1362	0.145194
1374	0.161436
1386	0.174374
1398	0.165585
1410	0.145054
1422	0.113484
1434	0.0840932
1446	0.0629292
1458	0.0653902
1470	0.061523
1482	0.0575855
1494	0.0337498
1506	0.0175077
1518	0.0143436
1530	0.011953
1542	0.00907025
1554	0.0140624
1566	0.0182108
1578	0.027492
1590	0.050484
1602	0.0881009
1614	0.126632
1626	0.141186
1638	0.123398
1650	0.0781869
1662	0.0401482
1674	0.0189842
1686	0.00787494
1698	0.00344529
1710	0.00745307
1722	0.00724214
1734	0.0047109
1746	0.00358591
1758	0.0017578
1770	0.000562496
1782	0.00260154
1794	0.00196874
1806	0.00421872
1818	0.00513278
1830	0.0052734
1842	0.00520309
1854	0.00590621
1866	0.00541402
1878	0.00506246
1890	0.00442966
1902	0.00414841
1914	0.00400778
1926	0.00400778
1938	0.00492184
1950	0.00464059
1962	0.00464059
1974	0.00506246
1986	0.00457028
1998	0.0047109
2010	0.00442966
2022	0.00492184
2034	0.00548434
2046	0.00632808
2058	0.00639839
2070	0.00674995
2082	0.00674995
2094	0.00618746
2106	0.00562496
2118	0.00464059
2130	0.00421872
2142	0.00344529
2154	0.00253123
2166	0.00239061
2178	0.00217967
2190	0.00203905
2202	0.00154686
2214	0.0011953
2226	0.000984368
2238	0.00105468
2250	0.000632808
2262	0.000140624
2274	0.00105468
2286	0.000984368
2298	0.00217967
2310	0.0035156
2322	0.00288279
2334	0.00161718
2346	0.00520309
2358	0.00414841
2370	0.00421872
2382	0.00323435
2394	0.00126562
2406	0.00161718
2418	0.00217967
2430	0.00224998
2442	0.0029531
2454	0.00323435
2466	0.00323435
2478	0.00358591
2490	0.00267186
2502	0.00281248
2514	0.00239061
2526	0.00253123
2538	0.0029531
2550	0.0035156
2562	0.0040781
2574	0.00428903
2586	0.0052734
2598	0.00569527
2610	0.00717182
2622	0.00864838
2634	0.0111796
2646	0.0144843
2658	0.0184921
2670	0.0221483
2682	0.0269998
2694	0.0316404
2706	0.037195
2718	0.0431013
2730	0.049359
2742	0.0524528
2754	0.0539996
2766	0.0566012
2778	0.0632808
2790	0.0730542
2802	0.0905619
2814	0.12164
2826	0.173249
2838	0.256568
2850	0.377013
2862	0.488387
2874	0.532824
2886	0.53634
2898	0.517074
2910	0.548223
2922	0.620574
2934	0.691237
2946	0.685401
2958	0.588933
2970	0.39213
2982	0.247076
2994	0.121499
3006	0.0530856
3018	0.0234139
3030	0.013078
3042	0.00956243
3054	0.00696089
3066	0.00506246
3078	0.00449997
3090	0.00414841
3102	0.00288279
3114	0.00210936
3126	0.00168749
3138	0.000492184
3150	0.00035156
3162	0.000914056
3174	0.000984368
3186	0.000843744
3198	0.0017578
3210	0.00316404
3222	0.00400778
3234	0.00344529
3246	0.00379685
3258	0.00358591
3270	0.00224998
3282	0.00217967
3294	0.00112499
3306	0.0011953
3318	0.00189842
3330	0.0052734
3342	0.0075937
3354	0.00899994
3366	0.0106171
3378	0.0151874
3390	0.0208827
3402	0.024117
3414	0.0293201
3426	0.0289685
3438	0.0241873
3450	0.0182108
3462	0.0138515
3474	0.00963274
3486	0.00899994
3498	0.00871869
3510	0.0106874
3522	0.0142733
3534	0.0243983
3546	0.0499215
3558	0.102023
3570	0.114257
3582	0.11939
3594	0.0952024
3606	0.067148
3618	0.0530856
3630	0.0494293
3642	0.0585699
3654	0.0732651
3666	0.0880306
3678	0.0903509
3690	0.0686245
3702	0.0526637
3714	0.0249608
3726	0.0206014
3738	0.0132187
3750	0.0035156
3762	0.00653902
3774	0.00246092
3786	0.00154686
3798	0.000140624
3810	0.000843744
3822	0.000140624
3834	0.000140624
3846	0.000562496
3858	0.000140624
3870	0.00217967
3882	0.000421872
3894	0.000773432
3906	0.000421872
3918	0.00239061
3930	0.00281248
3942	0.000281248
3954	0.00126562
3966	0.000210936
