Infrared Spectrum: ETHANOL, 2-AMINO-
Formula: C2 H7 N O
CAS: 141-43-5
State: LIQUID (NEAT)
Class: COBLENTZ III
Instrument: DOW KBr FOREPRISM-GRATING
Instrument parameters: BLAZED AT 3.5, 12.0, 20.0 MICRON, CHANGED AT 5.0, 7.5, 14.9 MICRON
Sampling: TRANSMISSION
Path length: CAPILLARY, KBr PLATES
Resolution: 4
Origin: DOW CHEMICAL COMPANY
1/CM	TRANSMITTANCE
398.294	0.796
406.823	0.793
415.352	0.794
423.88	0.797
432.409	0.801
440.938	0.808
449.467	0.812
457.996	0.813
466.524	0.82
475.053	0.825
483.582	0.837
492.111	0.846
500.64	0.84
509.168	0.818
517.697	0.814
526.226	0.829
534.755	0.857
543.284	0.869
551.812	0.874
560.341	0.87
568.87	0.862
577.399	0.864
585.927	0.87
594.456	0.872
602.985	0.872
611.514	0.865
620.043	0.861
628.571	0.856
637.1	0.852
645.629	0.85
654.158	0.842
662.687	0.838
671.215	0.836
679.744	0.832
688.273	0.829
696.802	0.821
705.331	0.817
713.859	0.812
722.388	0.809
730.917	0.808
739.446	0.802
747.975	0.798
756.503	0.793
765.032	0.789
773.561	0.781
782.09	0.774
790.619	0.765
799.147	0.758
807.676	0.744
816.205	0.717
824.734	0.693
833.263	0.657
841.791	0.631
850.32	0.619
858.849	0.579
867.378	0.536
875.906	0.557
884.435	0.62
892.964	0.624
901.493	0.605
910.022	0.588
918.55	0.555
927.079	0.523
935.608	0.492
944.137	0.468
952.666	0.459
961.194	0.464
969.723	0.479
978.252	0.501
986.781	0.519
995.31	0.521
1003.84	0.532
1012.37	0.549
1020.9	0.505
1029.42	0.398
1037.95	0.38
1046.48	0.458
1055.01	0.596
1063.54	0.563
1072.07	0.455
1080.6	0.408
1089.13	0.519
1097.66	0.691
1106.18	0.724
1114.71	0.792
1123.24	0.846
1131.77	0.882
1140.3	0.894
1148.83	0.892
1157.36	0.878
1165.89	0.866
1174.41	0.866
1182.94	0.884
1191.47	0.917
1200	0.93
1208.53	0.928
1217.06	0.92
1225.59	0.906
1234.12	0.9
1242.64	0.882
1251.17	0.88
1259.7	0.88
1268.23	0.88
1276.76	0.876
1285.29	0.858
1293.82	0.834
1302.35	0.8
1310.88	0.781
1319.4	0.776
1327.93	0.774
1336.46	0.758
1344.99	0.737
1353.52	0.677
1362.05	0.68
1370.58	0.724
1379.11	0.762
1387.63	0.772
1396.16	0.78
1404.69	0.797
1413.22	0.788
1421.75	0.764
1430.28	0.745
1438.81	0.709
1447.34	0.68
1455.86	0.663
1464.39	0.656
1472.92	0.665
1481.45	0.695
1489.98	0.732
1498.51	0.772
1507.04	0.794
1515.57	0.814
1524.09	0.829
1532.62	0.832
1541.15	0.825
1549.68	0.81
1558.21	0.792
1566.74	0.744
1575.27	0.701
1583.8	0.628
1592.33	0.555
1600.85	0.541
1609.38	0.576
1617.91	0.675
1626.44	0.744
1634.97	0.79
1643.5	0.812
1652.03	0.83
1660.56	0.836
1669.08	0.837
1677.61	0.856
1686.14	0.87
1694.67	0.877
1703.2	0.89
1711.73	0.901
1720.26	0.908
1728.79	0.909
1737.31	0.916
1745.84	0.918
1754.37	0.921
1762.9	0.928
1771.43	0.926
1779.96	0.926
1788.49	0.929
1797.02	0.93
1805.55	0.93
1814.07	0.932
1822.6	0.926
1831.13	0.928
1839.66	0.932
1848.19	0.928
1856.72	0.929
1865.25	0.928
1873.78	0.928
1882.3	0.926
1890.83	0.926
1899.36	0.932
1907.89	0.922
1916.42	0.926
1924.95	0.926
1933.48	0.924
1942.01	0.925
1950.53	0.928
1959.06	0.948
1967.59	0.926
1976.12	0.926
1984.65	0.926
1993.18	0.928
2001.71	0.922
2010.24	0.922
2018.76	0.917
2027.29	0.922
2035.82	0.92
2044.35	0.921
2052.88	0.921
2061.41	0.917
2069.94	0.92
2078.47	0.916
2087	0.916
2095.52	0.916
2104.05	0.918
2112.58	0.918
2121.11	0.918
2129.64	0.918
2138.17	0.914
2146.7	0.916
2155.23	0.918
2163.75	0.9141
2172.28	0.914
2180.81	0.917
2189.34	0.917
2197.87	0.913
2206.4	0.9101
2214.93	0.909
2223.46	0.909
2231.98	0.909
2240.51	0.908
2249.04	0.909
2257.57	0.908
2266.1	0.905
2274.63	0.904
2283.16	0.9021
2291.69	0.902
2300.22	0.897
2308.74	0.894
2317.27	0.893
2325.8	0.8882
2334.33	0.885
2342.86	0.8781
2351.39	0.8761
2359.92	0.874
2368.45	0.87
2376.97	0.869
2385.5	0.864
2394.03	0.8601
2402.56	0.8561
2411.09	0.8443
2419.62	0.84
2428.15	0.8341
2436.68	0.8222
2445.2	0.8161
2453.73	0.806
2462.26	0.8001
2470.79	0.7901
2479.32	0.7822
2487.85	0.773
2496.38	0.7641
2504.91	0.7532
2513.44	0.7451
2521.96	0.7373
2530.49	0.7274
2539.02	0.7152
2547.55	0.709
2556.08	0.7015
2564.61	0.6932
2573.14	0.6852
2581.67	0.6764
2590.19	0.6671
2598.72	0.655
2607.25	0.6413
2615.78	0.6321
2624.31	0.6152
2632.84	0.6043
2641.37	0.5991
2649.9	0.5892
2658.42	0.5792
2666.95	0.5751
2675.48	0.5652
2684.01	0.5561
2692.54	0.5453
2701.07	0.5284
2709.6	0.5133
2718.13	0.5041
2726.65	0.4963
2735.18	0.4861
2743.71	0.4763
2752.24	0.4662
2760.77	0.4545
2769.3	0.4443
2777.83	0.4351
2786.36	0.4242
2794.89	0.4102
2803.41	0.387
2811.94	0.3638
2820.47	0.3387
2829	0.3082
2837.53	0.2649
2846.06	0.2297
2854.59	0.2016
2863.12	0.2019
2871.64	0.2126
2880.17	0.2423
2888.7	0.2679
2897.23	0.2671
2905.76	0.2421
2914.29	0.2189
2922.82	0.2021
2931.35	0.201
2939.87	0.2102
2948.4	0.2448
2956.93	0.3297
2965.46	0.4018
2973.99	0.4618
2982.52	0.4856
2991.05	0.49
2999.58	0.486
3008.11	0.4791
3016.63	0.4683
3025.16	0.4551
3033.69	0.4343
3042.22	0.4191
3050.75	0.4067
3059.28	0.3901
3067.81	0.38
3076.34	0.364
3084.86	0.3552
3093.39	0.3444
3101.92	0.3363
3110.45	0.3223
3118.98	0.3163
3127.51	0.3083
3136.04	0.2983
3144.57	0.2912
3153.09	0.2845
3161.62	0.2752
3170.15	0.2672
3178.68	0.266
3187.21	0.268
3195.74	0.2718
3204.27	0.275
3212.8	0.275
3221.33	0.275
3229.85	0.2712
3238.38	0.2622
3246.91	0.2543
3255.44	0.2475
3263.97	0.2353
3272.5	0.2225
3281.03	0.2153
3289.56	0.213
3298.08	0.2178
3306.61	0.2335
3315.14	0.239
3323.67	0.238
3332.2	0.2252
3340.73	0.2078
3349.26	0.1946
3357.79	0.1966
3366.31	0.2134
3374.84	0.2515
3383.37	0.3053
3391.9	0.3404
3400.43	0.3733
3408.96	0.3904
3417.49	0.4118
3426.02	0.4428
3434.54	0.4676
3443.07	0.4948
3451.6	0.5186
3460.13	0.5432
3468.66	0.572
3477.19	0.6063
3485.72	0.6426
3494.25	0.6777
3502.78	0.6994
3511.3	0.7231
3519.83	0.7505
3528.36	0.7787
3536.89	0.7956
3545.42	0.8227
3553.95	0.8433
3562.48	0.8656
3571.01	0.8831
3579.53	0.8991
3588.06	0.9123
3596.59	0.9298
3605.12	0.934
3613.65	0.9535
3622.18	0.9578
3630.71	0.9671
3639.24	0.9738
3647.76	0.9778
3656.29	0.9808
3664.82	0.9848
3673.35	0.9888
3681.88	0.99
3690.41	0.994
3698.94	0.996
3707.47	0.996
3716	0.998
3724.52	1
3733.05	1.002
3741.58	1.0022
3750.11	1.0002
3758.64	1
3767.17	1.0017
3775.7	1.003
3784.23	1.003
3792.75	1.0012
