Infrared Spectrum: Methane, dichlorofluoro-
Formula: C H Cl 2 F
CAS: 75-43-4
State: gas
Origin: Sadtler Research Labs Under US-EPA Contract
1/CM	ABSORBANCE
450	0.0112162
462	0.0169518
474	0.00701014
486	0.00675522
498	0.00433354
510	0.00675522
522	0.00650031
534	0.00522574
546	0.00484337
558	0.00509828
570	0.00203931
582	0.00318643
594	0.004461
606	0.00305897
618	0.00331388
630	0.00382371
642	0.00395117
654	0.00637285
666	0.00127457
678	0.00560811
690	0.0100691
702	0.0226873
714	0.0670424
726	0.147978
738	0.239747
750	0.272631
762	0.170665
774	0.227256
786	0.793675
798	1.17758
810	1.09689
822	0.570243
834	0.27467
846	0.0915141
858	0.00790233
870	0.00433354
882	0.00484337
894	0.00713759
906	0.00701014
918	0.00624539
930	0.00548065
942	0.00751996
954	0.00866708
966	0.00764742
978	0.00522574
990	0.00420608
1002	0.00458845
1014	0.00726505
1026	0.0198833
1038	0.0722681
1050	0.264091
1062	0.734407
1074	1.02208
1086	1.21352
1098	0.388489
1110	0.0646207
1122	0.0163145
1134	0.011981
1146	0.0126182
1158	0.00904945
1170	0.00713759
1182	0.0109613
1194	0.0154223
1206	0.0203931
1218	0.0977595
1230	0.259502
1242	0.282572
1254	0.2075
1266	0.0716308
1278	0.0254914
1290	0.031227
1302	0.0762193
1314	0.069719
1326	0.0486886
1338	0.0193735
1350	0.00560811
1362	0.00382371
1374	0.0035688
1386	0.00318643
1398	0.00395117
1410	0.00318643
1422	0.00331388
1434	0.00369625
1446	0.0035688
1458	0.00318643
1470	0.004461
1482	0.00420608
1494	0.00484337
1506	0.00637285
1518	0.00879453
1530	0.0108338
1542	0.0109613
1554	0.00764742
1566	0.00535319
1578	0.00522574
1590	0.00548065
1602	0.00624539
1614	0.00611794
1626	0.00382371
1638	0.00369625
1650	0.00216677
1662	0.00254914
1674	0.00254914
1686	0.00254914
1698	0.0026766
1710	0.00254914
1722	0.00191186
1734	0.00191186
1746	0.00216677
1758	0.00216677
1770	0.00165694
1782	0.00216677
1794	0.00191186
1806	0.00216677
1818	0.00165694
1830	0.00165694
1842	0.00191186
1854	0.00165694
1866	0.0017844
1878	0.00191186
1890	0.00127457
1902	0.00152948
1914	0.00114711
1926	0.00152948
1938	0.00140203
1950	0.00165694
1962	0.00165694
1974	0.00140203
1986	0.00152948
1998	0.00127457
2010	0.00127457
2022	0.000892199
2034	0.00140203
2046	0.00140203
2058	0.00127457
2070	0.00165694
2082	0.00229423
2094	0.0035688
2106	0.00586302
2118	0.011981
2130	0.0187362
2142	0.0172067
2154	0.0118535
2166	0.00305897
2178	0.000637285
2190	0.000509828
2202	0.00114711
2214	0.00101966
2226	0.00101966
2238	0.00101966
2250	0.000892199
2262	0.000892199
2274	0.000637285
2286	0.00140203
2298	0.00318643
2310	0.00407862
2322	0.00305897
2334	0.00203931
2346	0.00203931
2358	0.00216677
2370	0.00407862
2382	0.00280405
2394	0.00114711
2406	0.00101966
2418	0.000637285
2430	0.000764742
2442	0.00101966
2454	0.000892199
2466	0.000892199
2478	0.000637285
2490	0.000254914
2502	0.000127457
2514	0.000382371
2526	0.000382371
2538	0.00191186
2550	0.00216677
2562	0.0017844
2574	0.000892199
2586	0.000509828
2598	0.000892199
2610	0.00191186
2622	0.0017844
2634	0.00127457
2646	0.000509828
2658	0.000637285
2670	0.000637285
2682	0.000509828
2694	0.000509828
2706	0.000764742
2718	0.000382371
2730	0.000637285
2742	0.000637285
2754	0.000509828
2766	0.000892199
2778	0.000382371
2790	0.000254914
2802	0.000509828
2814	0.000764742
2826	0.000764742
2838	0.000764742
2850	0.000764742
2862	0.000892199
2874	0.000892199
2886	0.000509828
2898	0.000764742
2910	0.00101966
2922	0.000637285
2934	0.000764742
2946	0.00127457
2958	0.000637285
2970	0.00101966
2982	0.00140203
2994	0.00216677
3006	0.00853962
3018	0.00790233
3030	0.0128732
3042	0.00662776
3054	0.0035688
3066	0.00127457
3078	0.000509828
3090	0.00101966
3102	0.00114711
3114	0.00127457
3126	0.00152948
3138	0.000764742
3150	0.00140203
3162	0.0017844
3174	0.00165694
3186	0.00203931
3198	0.0017844
3210	0.00114711
3222	0.00140203
3234	0.00114711
3246	0.00127457
3258	0.00101966
3270	0.00127457
3282	0.00114711
3294	0.0017844
3306	0.00140203
3318	0.00152948
3330	0.00165694
3342	0.00114711
3354	0.00114711
3366	0.0017844
3378	0.00101966
3390	0.000764742
3402	0.00140203
3414	0.00152948
3426	0.0017844
3438	0.00152948
3450	0.00101966
3462	0.00229423
3474	0.0017844
3486	0.00140203
3498	0.00101966
3510	0.00191186
3522	0.00114711
3534	0.00114711
3546	0.00114711
3558	0.00293151
3570	0.0017844
3582	0.00165694
3594	0.00152948
3606	0.00293151
3618	0.00152948
3630	0.000892199
3642	0.00114711
3654	0.00152948
3666	0.00280405
3678	0.00114711
3690	0.0017844
3702	0.00127457
3714	0.00229423
3726	0.00280405
3738	0.00203931
3750	0.00305897
3762	0.00305897
3774	0.0035688
3786	0.00254914
3798	0.000764742
3810	0.00344134
3822	0.00191186
3834	0.00191186
3846	0.000509828
3858	0.00140203
3870	0.00203931
3882	0.0026766
3894	0.00229423
3906	0.00229423
3918	0.000764742
3930	0.00165694
3942	0.00191186
3954	0.000637285
3966	0.00203931
