Infrared Spectrum: Propane
Formula: C 3 H 8
CAS: 74-98-6
State: gas
Origin: Sadtler Research Labs Under US-EPA Contract
1/CM	ABSORBANCE
450	0.0171616
462	0.00612538
474	0.00110891
486	0.000897685
498	0.00258744
510	0.00232342
522	0.00227062
534	0.00464684
546	0.00248183
558	0.00227062
570	0.00253464
582	0.00332672
594	0.00121451
606	0.00237623
618	0.00258744
630	0.00311549
642	0.00163696
654	0.00232342
666	0.00327391
678	0.00290427
690	0.00285147
702	0.0031683
714	0.0053333
726	0.00580855
738	0.00644221
750	0.0103498
762	0.00723429
774	0.00623099
786	0.00454123
798	0.00433001
810	0.00300988
822	0.00258744
834	0.00279867
846	0.00258744
858	0.00443562
870	0.00306269
882	0.00322111
894	0.00353793
906	0.0052277
918	0.00438281
930	0.0052277
942	0.00559733
954	0.00348513
966	0.00264025
978	0.00205939
990	0.00174256
1002	0.00190098
1014	0.00237623
1026	0.00343232
1038	0.00433001
1050	0.0042244
1062	0.00401318
1074	0.00506928
1086	0.00253464
1098	0.00195378
1110	0.002165
1122	0.00274586
1134	0.00380196
1146	0.00443562
1158	0.00438281
1170	0.00538611
1182	0.00374916
1194	0.00311549
1206	0.00205939
1218	0.00179537
1230	0.00195378
1242	0.00227062
1254	0.00253464
1266	0.00248183
1278	0.00232342
1290	0.00269306
1302	0.00385477
1314	0.00712868
1326	0.00892405
1338	0.0120395
1350	0.014627
1362	0.0179009
1374	0.0220197
1386	0.0201715
1398	0.0274058
1410	0.0163696
1422	0.0177425
1434	0.0241319
1446	0.0309965
1458	0.0334784
1470	0.0544948
1482	0.0320526
1494	0.0285147
1506	0.020858
1518	0.0152078
1530	0.00897685
1542	0.00575574
1554	0.00348513
1566	0.00242903
1578	0.00205939
1590	0.002165
1602	0.00179537
1614	0.00190098
1626	0.00179537
1638	0.002165
1650	0.002165
1662	0.00242903
1674	0.00158415
1686	0.00237623
1698	0.00221781
1710	0.00227062
1722	0.00195378
1734	0.00100329
1746	0.00147854
1758	0.00132012
1770	0.000897685
1782	0.00116171
1794	0.00073927
1806	0.00073927
1818	0.000897685
1830	0.000792075
1842	0.00121451
1854	0.00095049
1866	0.00084488
1878	0.00100329
1890	0.00042244
1902	0.000792075
1914	0.000792075
1926	0.000897685
1938	0.000792075
1950	0.000792075
1962	0.00052805
1974	0.000264025
1986	0.000580855
1998	0.00031683
2010	0.000686465
2022	0.00042244
2034	0.00063366
2046	0.00063366
2058	0.00084488
2070	0.000264025
2082	0.00052805
2094	0.00042244
2106	0.00021122
2118	0.00042244
2130	0.00021122
2142	0.000369635
2154	0.00052805
2166	0.000264025
2178	0.000475245
2190	0.000475245
2202	0.000686465
2214	0.000897685
2226	0.00100329
2238	0.00095049
2250	0.000686465
2262	0.000897685
2274	0.00021122
2286	0.000686465
2298	0.000897685
2310	0.000897685
2322	0.00052805
2334	0.00010561
2346	0.00010561
2358	0.00084488
2370	0.000264025
2382	0.00126732
2394	0.00121451
2406	0.00052805
2418	0.0010561
2430	0.00084488
2442	0.00110891
2454	0.0010561
2466	0.00095049
2478	0.00073927
2490	0.0010561
2502	0.000897685
2514	0.00116171
2526	0.00084488
2538	0.000897685
2550	0.00073927
2562	0.00100329
2574	0.00132012
2586	0.00184818
2598	0.002165
2610	0.00242903
2622	0.00311549
2634	0.00295708
2646	0.00327391
2658	0.00322111
2670	0.00311549
2682	0.00295708
2694	0.00264025
2706	0.00253464
2718	0.00411879
2730	0.0052277
2742	0.00675904
2754	0.00755111
2766	0.00929368
2778	0.00908246
2790	0.00982173
2802	0.0102442
2814	0.0132012
2826	0.0193794
2838	0.0243431
2850	0.0408183
2862	0.0896101
2874	0.146217
2886	0.146323
2898	0.187247
2910	0.198494
2922	0.227906
2934	0.264553
2946	0.333464
2958	0.45238
2970	0.52805
2982	0.382097
2994	0.293015
3006	0.164646
3018	0.080422
3030	0.0363826
3042	0.0168976
3054	0.00929368
3066	0.00776234
3078	0.00755111
3090	0.0063366
3102	0.00797356
3114	0.00665343
3126	0.00607258
3138	0.00654782
3150	0.00654782
3162	0.00712868
3174	0.00728709
3186	0.00686465
3198	0.0062838
3210	0.00543891
3222	0.00396038
3234	0.00306269
3246	0.00258744
3258	0.00168976
3270	0.00163696
3282	0.00121451
3294	0.0010561
3306	0.00147854
3318	0.00184818
3330	0.00205939
3342	0.00242903
3354	0.00200659
3366	0.00237623
3378	0.00110891
3390	0.00110891
3402	0.00121451
3414	0.00100329
3426	0.00100329
3438	0.00126732
3450	0.00116171
3462	0.00073927
3474	0.00137293
3486	0.000686465
3498	0.00137293
3510	0.00121451
3522	0.000580855
3534	0.00084488
3546	0.00073927
3558	0.000475245
3570	0.00100329
3582	0.00052805
3594	0.000475245
3606	0.00116171
3618	0.00126732
3630	0.00021122
3642	0.002165
3654	0.00121451
3666	0.00264025
3678	0.00132012
3690	0.00285147
3702	0.00168976
3714	0.00174256
3726	0.002165
3738	0.00195378
3750	0.00205939
3762	0.00205939
3774	0.00158415
3786	0.00227062
3798	0.00116171
3810	0.00353793
3822	0.00264025
3834	0.00258744
3846	0.00327391
3858	0.00179537
3870	0.00095049
3882	0.00295708
3894	0.000897685
3906	0.00269306
3918	0.000897685
3930	0.00190098
3942	0.00205939
3954	0.00195378
3966	0.00227062
