Infrared Spectrum: 1,3-DICHLOROPROPANE
Formula: C3 H6 Cl2
CAS: 142-28-9
Class: COBLENTZ
Instrument: Not specified, most likely a prism, grating, or hybrid spectrometer.
Sampling: TRANSMISSION
Path length: 0.0025 CM
Resolution: 4
Origin: W.T. BOLLETER
MICROMETERS	TRANSMITTANCE
14.527	0.012
14.5972	0.01
14.6675	0.003
14.7377	0.001
14.8079	0
14.8781	0.003
14.9484	0.005
15.0186	0.005
15.0888	0.003
15.159	0.001
15.2293	0.001
15.2995	0.001
15.3697	0.001
15.4399	0.001
15.5102	0.001
15.5804	0.003
15.6506	0.005
15.7208	0.005
15.7911	0.007
15.8613	0.01
15.9315	0.025
16.0017	0.057
16.072	0.103
16.1422	0.175
16.2124	0.246
16.2826	0.317
16.3529	0.382
16.4231	0.439
16.4933	0.482
16.5636	0.521
16.6338	0.555
16.704	0.583
16.7742	0.616
16.8445	0.637
16.9147	0.655
16.9849	0.669
17.0551	0.685
17.1254	0.701
17.1956	0.719
17.2658	0.739
17.336	0.75
17.4063	0.758
17.4765	0.764
17.5467	0.769
17.6169	0.775
17.6872	0.778
17.7574	0.782
17.8276	0.794
17.8978	0.803
17.9681	0.812
18.0383	0.819
18.1085	0.826
18.1787	0.833
18.249	0.837
18.3192	0.839
18.3894	0.844
18.4596	0.846
18.5299	0.85
18.6001	0.851
18.6703	0.851
18.7406	0.85
18.8108	0.846
18.881	0.844
18.9512	0.842
19.0215	0.844
19.0917	0.848
19.1619	0.851
19.2321	0.855
19.3024	0.858
19.3726	0.86
19.4428	0.86
19.513	0.862
19.5833	0.86
19.6535	0.858
19.7237	0.858
19.7939	0.857
19.8642	0.855
19.9344	0.853
20.0046	0.85
20.0748	0.848
20.1451	0.844
20.2153	0.841
20.2855	0.837
20.3557	0.832
20.426	0.825
20.4962	0.814
20.5664	0.801
20.6367	0.791
20.7069	0.775
20.7771	0.753
20.8473	0.748
20.9176	0.739
20.9878	0.732
21.058	0.721
21.1282	0.701
21.1985	0.687
21.2687	0.667
21.3389	0.648
21.4091	0.619
21.4794	0.592
21.5496	0.564
21.6198	0.551
21.69	0.537
21.7603	0.535
21.8305	0.535
21.9007	0.539
21.9709	0.55
22.0412	0.566
22.1114	0.576
22.1816	0.589
22.2518	0.598
22.3221	0.596
22.3923	0.587
22.4625	0.567
22.5328	0.541
22.603	0.503
22.6732	0.46
22.7434	0.396
22.8137	0.303
22.8839	0.207
22.9541	0.132
23.0243	0.073
23.0946	0.042
23.1648	0.025
23.235	0.028
23.3052	0.037
23.3755	0.091
23.4457	0.155
23.5159	0.258
23.5861	0.353
23.6564	0.451
23.7266	0.539
23.7968	0.603
23.867	0.651
23.9373	0.689
24.0075	0.717
24.0777	0.748
24.1479	0.76
24.2182	0.776
24.2884	0.794
24.3586	0.801
24.4288	0.816
24.4991	0.823
24.5693	0.828
24.6395	0.832
24.7098	0.841
24.78	0.842
24.8502	0.846
24.9204	0.848
24.9907	0.85
25.0609	0.85
25.1311	0.848
25.2013	0.846
25.2716	0.842
25.3418	0.839
25.412	0.835
25.4822	0.832
25.5525	0.828
25.6227	0.825
25.6929	0.817
25.7631	0.812
25.8334	0.805
25.9036	0.798
25.9738	0.791
26.044	0.778
26.1143	0.766
26.1845	0.757
26.2547	0.732
26.3249	0.712
26.3952	0.676
26.4654	0.633
26.5356	0.58
26.6059	0.519
26.6761	0.48
26.7463	0.428
26.8165	0.391
26.8868	0.376
26.957	0.376
27.0272	0.4
27.0974	0.428
27.1677	0.451
27.2379	0.476
27.3081	0.491
27.3783	0.498
27.4486	0.492
27.5188	0.483
27.589	0.473
27.6592	0.458
27.7295	0.435
27.7997	0.419
27.8699	0.401
27.9401	0.38
28.0104	0.36
28.0806	0.344
28.1508	0.33
28.221	0.319
28.2913	0.308
28.3615	0.303
28.4317	0.3
28.5019	0.3
28.5722	0.301
28.6424	0.305
28.7126	0.312
28.7829	0.321
28.8531	0.333
28.9233	0.351
28.9935	0.378
29.0638	0.407
29.134	0.421
29.2042	0.441
29.2744	0.476
29.3447	0.503
29.4149	0.521
29.4851	0.539
29.5553	0.558
29.6256	0.585
29.6958	0.603
29.766	0.619
29.8362	0.632
29.9065	0.65
29.9767	0.666
30.0469	0.68
30.1171	0.685
30.1874	0.7
30.2576	0.705
30.3278	0.716
30.398	0.721
30.4683	0.73
30.5385	0.737
30.6087	0.741
30.679	0.746
30.7492	0.75
30.8194	0.757
30.8896	0.76
30.9599	0.76
31.0301	0.764
31.1003	0.766
31.1705	0.767
31.2408	0.771
31.311	0.771
31.3812	0.775
31.4514	0.775
31.5217	0.773
31.5919	0.773
31.6621	0.771
31.7323	0.771
31.8026	0.769
31.8728	0.769
31.943	0.767
32.0132	0.767
32.0835	0.76
32.1537	0.758
32.2239	0.757
32.2941	0.755
32.3644	0.75
32.4346	0.748
32.5048	0.744
32.5751	0.741
32.6453	0.735
32.7155	0.732
32.7857	0.73
32.856	0.725
32.9262	0.714
32.9964	0.705
33.0666	0.698
33.1369	0.682
33.2071	0.675
33.2773	0.669
33.3475	0.666
33.4178	0.66
33.488	0.658
33.5582	0.658
33.6284	0.655
33.6987	0.65
33.7689	0.646
33.8391	0.642
33.9093	0.641
33.9796	0.641
34.0498	0.637
34.12	0.637
34.1902	0.633
34.2605	0.632
34.3307	0.628
34.4009	0.626
34.4711	0.625
34.5414	0.619
34.6116	0.616
34.6818	0.605
34.7521	0.598
34.8223	0.589
34.8925	0.582
34.9627	0.576
35.033	0.566
35.1032	0.558
35.1734	0.551
35.2436	0.546
35.3139	0.533
35.3841	0.523
35.4543	0.508
35.5245	0.498
35.5948	0.485
35.665	0.478
35.7352	0.469
35.8054	0.466
35.8757	0.462
35.9459	0.441
36.0161	0.43
36.0863	0.419
36.1566	0.41
36.2268	0.405
36.297	0.398
36.3672	0.385
36.4375	0.38
36.5077	0.376
36.5779	0.369
36.6482	0.362
36.7184	0.36
36.7886	0.355
36.8588	0.351
36.9291	0.351
36.9993	0.35
37.0695	0.344
37.1397	0.342
37.21	0.342
37.2802	0.348
37.3504	0.353
37.4206	0.364
37.4909	0.371
37.5611	0.373
37.6313	0.378
37.7015	0.383
37.7718	0.392
37.842	0.392
37.9122	0.392
37.9824	0.396
