Infrared Spectrum: Propane, 1,3-dichloro-
Formula: C 3 H 6 Cl 2
CAS: 142-28-9
State: gas
Origin: Sadtler Research Labs Under US-EPA Contract
1/CM	ABSORBANCE
450	0.0118465
462	0.078561
474	0.0686473
486	0.0507529
498	0.0469495
510	0.0435827
522	0.0397793
534	0.0427097
546	0.0432709
558	0.0281198
570	0.0255635
582	0.0424604
594	0.0443932
606	0.0426474
618	0.0534963
630	0.0827384
642	0.197026
654	0.321165
666	0.347352
678	0.269788
690	0.183808
702	0.191477
714	0.191227
726	0.149079
738	0.199084
750	0.113664
762	0.0803068
774	0.158057
786	0.241669
798	0.390124
810	0.312311
822	0.137357
834	0.0617888
846	0.101568
858	0.212676
870	0.195093
882	0.0867912
894	0.0516258
906	0.0501294
918	0.0546809
930	0.042398
942	0.0503788
954	0.103688
966	0.20906
978	0.205131
990	0.0656545
1002	0.043645
1014	0.0378464
1026	0.0490695
1038	0.0617265
1050	0.0806185
1062	0.105808
1074	0.0969542
1086	0.0618512
1098	0.0369112
1110	0.0281198
1122	0.0263117
1134	0.0292421
1146	0.0320479
1158	0.0322349
1170	0.0279951
1182	0.0283069
1194	0.0320479
1206	0.0362253
1218	0.0422733
1230	0.0502541
1242	0.0504411
1254	0.088724
1266	0.341117
1278	0.6235
1290	0.517131
1302	0.31362
1314	0.283568
1326	0.212364
1338	0.159554
1350	0.140475
1362	0.109736
1374	0.0547433
1386	0.0379088
1398	0.0340431
1410	0.0541198
1422	0.110297
1434	0.181064
1446	0.317486
1458	0.274028
1470	0.108053
1482	0.0490695
1494	0.0255012
1506	0.0195779
1518	0.0163981
1530	0.0172086
1542	0.0117842
1554	0.0129064
1566	0.0135923
1578	0.0122829
1590	0.0115971
1602	0.0130935
1614	0.0096019
1626	0.0108489
1638	0.00866665
1650	0.0103501
1662	0.011223
1674	0.010163
1686	0.0066091
1698	0.0079808
1710	0.0101007
1722	0.0101007
1734	0.00953955
1746	0.00929015
1758	0.00966425
1770	0.0083549
1782	0.00854195
1794	0.0081055
1806	0.00854195
1818	0.00841725
1830	0.00804315
1842	0.0079808
1854	0.0076067
1866	0.0079808
1878	0.00854195
1890	0.007482
1902	0.0081055
1914	0.00953955
1926	0.0088537
1938	0.00841725
1950	0.0082302
1962	0.00804315
1974	0.0072326
1986	0.00654675
1998	0.00679615
2010	0.0071079
2022	0.00667145
2034	0.0067338
2046	0.00717025
2058	0.0076067
2070	0.00729495
2082	0.0081055
2094	0.00766905
2106	0.00654675
2118	0.006235
2130	0.00692085
2142	0.00704555
2154	0.00717025
2166	0.0066091
2178	0.00629735
2190	0.00654675
2202	0.0064844
2214	0.00766905
2226	0.00829255
2238	0.0079808
2250	0.00729495
2262	0.00754435
2274	0.00679615
2286	0.00717025
2298	0.00791845
2310	0.0063597
2322	0.00305515
2334	0.00218225
2346	0.0044892
2358	0.00043645
2370	0.00529975
2382	0.00667145
2394	0.0057362
2406	0.0063597
2418	0.00692085
2430	0.00679615
2442	0.00567385
2454	0.0041151
2466	0.00417745
2478	0.0033669
2490	0.00467625
2502	0.00442685
2514	0.0032422
2526	0.0023693
2538	0.0014964
2550	0.0006235
2562	0.0008729
2574	0.0017458
2586	0.00130935
2598	0.00218225
2610	0.00280575
2622	0.00243165
2634	0.00280575
2646	0.0029928
2658	0.00317985
2670	0.00392805
2682	0.0031175
2694	0.0047386
2706	0.0064844
2718	0.00891605
2730	0.0109112
2742	0.00904075
2754	0.00791845
2766	0.0084796
2778	0.00841725
2790	0.00791845
2802	0.00879135
2814	0.0109736
2826	0.0197649
2838	0.0298657
2850	0.038657
2862	0.0603548
2874	0.0928391
2886	0.113103
2898	0.105309
2910	0.11834
2922	0.16928
2934	0.22128
2946	0.246033
2958	0.331702
2970	0.463884
2982	0.486455
2994	0.330767
3006	0.253141
3018	0.179256
3030	0.0743212
3042	0.0273093
3054	0.0132806
3066	0.0083549
3078	0.0078561
3090	0.0067338
3102	0.00442685
3114	0.0047386
3126	0.0046139
3138	0.00355395
3150	0.00442685
3162	0.00455155
3174	0.00430215
3186	0.0047386
3198	0.0053621
3210	0.00517505
3222	0.00455155
3234	0.0053621
3246	0.00542445
3258	0.0043645
3270	0.0046139
3282	0.00467625
3294	0.0047386
3306	0.0051127
3318	0.00305515
3330	0.0016211
3342	0.00056115
3354	0.00268105
3366	0.0018705
3378	0.00293045
3390	0.0036163
3402	0.0038657
3414	0.0029928
3426	0.0029928
3438	0.00180815
3450	0.0021199
3462	0.0034916
3474	0.0043645
3486	0.0047386
3498	0.002494
3510	0.00317985
3522	0.0046139
3534	0.00330455
3546	0.0048633
3558	0.0047386
3570	0.00617265
3582	0.0041151
3594	0.00592325
3606	0.00592325
3618	0.00642205
3630	0.00754435
3642	0.0107865
3654	0.0142158
3666	0.0163981
3678	0.020139
3690	0.0127194
3702	0.00941485
3714	0.0098513
3726	0.0105372
3738	0.0113477
3750	0.00854195
3762	0.00953955
3774	0.009976
3786	0.0076067
3798	0.0066091
3810	0.0086043
3822	0.0064844
3834	0.0107242
3846	0.0113477
3858	0.00442685
3870	0.0078561
3882	0.00804315
3894	0.00966425
3906	0.0105372
3918	0.0114724
3930	0.011223
3942	0.0124076
3954	0.0115971
3966	0.0063597
