Infrared Spectrum: Propane, 2-methoxy-2-methyl-
Formula: C 5 H 12 O
CAS: 1634-04-4
State: gas
Origin: Sadtler Research Labs Under US-EPA Contract
1/CM	ABSORBANCE
450	0.0327106
462	0.0337856
474	0.0198107
486	0.0184285
498	0.0230357
510	0.0222678
522	0.0202714
534	0.00429999
546	0.0190428
558	0.0168928
570	0.0115178
582	0.0130535
594	0.0210392
606	0.0204249
618	0.0196571
630	0.0227285
642	0.0202714
654	0.0185821
666	0.0175071
678	0.0185821
690	0.0205785
702	0.0327106
714	0.0560534
726	0.0758641
738	0.0531356
750	0.0244178
762	0.0213464
774	0.0198107
786	0.0181214
798	0.0198107
810	0.0228821
822	0.034707
834	0.0892248
846	0.154032
858	0.163553
870	0.0976712
882	0.0276428
894	0.0222678
906	0.0214999
918	0.0202714
930	0.0182749
942	0.0181214
954	0.0184285
966	0.0198107
978	0.0227285
990	0.0261071
1002	0.0413106
1014	0.0663427
1026	0.0727927
1038	0.0597391
1050	0.0580498
1062	0.137446
1074	0.417406
1086	0.751423
1098	0.812083
1110	0.425852
1122	0.103814
1134	0.0687998
1146	0.0692605
1158	0.0850783
1170	0.119785
1182	0.239571
1194	0.509856
1206	0.804712
1218	0.769698
1230	0.383774
1242	0.280267
1254	0.217149
1266	0.145739
1278	0.0675712
1290	0.0330178
1302	0.0228821
1314	0.0224214
1326	0.0227285
1338	0.0440749
1350	0.158946
1362	0.289021
1374	0.356899
1386	0.270746
1398	0.11226
1410	0.0592784
1422	0.0367035
1434	0.0456106
1446	0.0687998
1458	0.120553
1470	0.153571
1482	0.133607
1494	0.0873819
1506	0.049757
1518	0.0314821
1530	0.0262606
1542	0.0310213
1554	0.0277964
1566	0.0262606
1578	0.0274892
1590	0.0202714
1602	0.0153571
1614	0.0168928
1626	0.0178142
1638	0.0193499
1650	0.0195035
1662	0.01505
1674	0.0193499
1686	0.0236499
1698	0.0251856
1710	0.0172
1722	0.0155107
1734	0.0207321
1746	0.0181214
1758	0.0142821
1770	0.0136678
1782	0.0129
1794	0.0153571
1806	0.0156642
1818	0.0158178
1830	0.0145892
1842	0.0115178
1854	0.00936783
1866	0.01075
1878	0.00921426
1890	0.0112107
1902	0.0115178
1914	0.0147428
1926	0.0185821
1938	0.0204249
1950	0.0175071
1962	0.011825
1974	0.00767855
1986	0.00721784
1998	0.00660355
2010	0.0058357
2022	0.00691069
2034	0.00813926
2046	0.01075
2058	0.0115178
2070	0.0102893
2082	0.0101357
2094	0.0104428
2106	0.0095214
2118	0.00906069
2130	0.00890712
2142	0.0102893
2154	0.0144357
2166	0.0188892
2178	0.0187357
2190	0.0121321
2202	0.00644998
2214	0.00537498
2226	0.00537498
2238	0.00506784
2250	0.00506784
2262	0.00568213
2274	0.00660355
2286	0.00721784
2298	0.00906069
2310	0.0109035
2322	0.0133607
2334	0.00875355
2346	0.000614284
2358	0.0147428
2370	0.000307142
2382	0.000307142
2394	0.00276428
2406	0.00399285
2418	0.00307142
2430	0.00153571
2442	0.000767855
2454	0.000921426
2466	0.000921426
2478	0.000921426
2490	0.000614284
2502	0.000307142
2514	0.000921426
2526	0.000614284
2538	0.001075
2550	0.00199642
2562	0.00261071
2574	0.00383928
2586	0.00506784
2598	0.00552856
2610	0.00614284
2622	0.00644998
2634	0.00614284
2646	0.00522141
2658	0.00552856
2670	0.00598927
2682	0.0058357
2694	0.00568213
2706	0.00614284
2718	0.00982854
2730	0.0130535
2742	0.0135142
2754	0.0136678
2766	0.0147428
2778	0.0182749
2790	0.0262606
2802	0.0453034
2814	0.113643
2826	0.215767
2838	0.257692
2850	0.186589
2862	0.133146
2874	0.194114
2886	0.286103
2898	0.394524
2910	0.469774
2922	0.516459
2934	0.570516
2946	0.608909
2958	0.671259
2970	1.11539
2982	1.43942
2994	0.985004
3006	0.361045
3018	0.0958283
3030	0.0522141
3042	0.0394677
3054	0.0322499
3066	0.0293321
3078	0.0277964
3090	0.0244178
3102	0.0207321
3114	0.0158178
3126	0.013975
3138	0.0138214
3150	0.0125928
3162	0.0125928
3174	0.0124393
3186	0.0124393
3198	0.0119785
3210	0.0116714
3222	0.011825
3234	0.0133607
3246	0.0102893
3258	0.00859998
3270	0.00629641
3282	0.00491427
3294	0.00491427
3306	0.00614284
3318	0.00906069
3330	0.00798569
3342	0.00798569
3354	0.00721784
3366	0.00706427
3378	0.00767855
3390	0.00936783
3402	0.00721784
3414	0.00644998
3426	0.00921426
3438	0.00859998
3450	0.0095214
3462	0.00906069
3474	0.00921426
3486	0.00706427
3498	0.00844641
3510	0.00721784
3522	0.00752498
3534	0.0058357
3546	0.00721784
3558	0.00752498
3570	0.00598927
3582	0.00798569
3594	0.00568213
3606	0.00706427
3618	0.00522141
3630	0.00522141
3642	0.00322499
3654	0.00414642
3666	0.00429999
3678	0.00184285
3690	0.00552856
3702	0.0047607
3714	0.001075
3726	0.000460713
3738	0.00230357
3750	0.000460713
3762	0.000307142
3774	0.000307142
3786	0.000460713
3798	0.00322499
3810	0.000307142
3822	0.00261071
3834	0.00138214
3846	0.00168928
3858	0.000307142
3870	0.00337856
3882	0.00199642
3894	0.00153571
3906	0.00322499
3918	0.00429999
3930	0.00291785
3942	0.00261071
3954	0.00414642
3966	0.00506784
