Infrared Spectrum: Acetaldoxime
Formula: C 2 H 5 N O
CAS: 107-29-9
State: gas
Origin: Sadtler Research Labs Under US-EPA Contract
1/CM	ABSORBANCE
450	0.0685887
462	0.0728354
474	0.126841
486	0.131088
498	0.0803674
510	0.078845
522	0.0601754
534	0.0370187
546	0.0646625
558	0.0499992
570	0.0463935
582	0.0443102
594	0.00512813
606	0.01891
618	0.038461
630	0.0483967
642	0.0961524
654	0.123075
666	0.0949505
678	0.122995
690	0.102643
702	0.096553
714	0.109694
726	0.0942294
738	0.0985562
750	0.0516819
762	0.0307688
774	0.00921461
786	0.0209131
798	0.0512813
810	0.0893416
822	0.18918
834	0.255044
846	0.262576
858	0.354722
870	0.457846
882	0.501275
894	0.539094
906	0.632523
918	0.390138
930	0.306646
942	0.275957
954	0.302079
966	0.502557
978	0.434849
990	0.575632
1002	0.173395
1014	0.0367783
1026	0.0213138
1038	0.0236375
1050	0.0272432
1062	0.0221151
1074	0.0323713
1086	0.061217
1098	0.147354
1110	0.206327
1122	0.165302
1134	0.112498
1146	0.0685887
1158	0.0655439
1170	0.145591
1182	0.299194
1194	0.202241
1206	0.0526434
1218	0.0564895
1230	0.0973543
1242	0.173876
1254	0.247192
1266	0.264339
1278	0.324034
1290	0.270108
1302	0.263297
1314	0.337014
1326	0.350315
1338	0.301598
1350	0.423391
1362	0.391821
1374	0.32147
1386	0.34727
1398	0.240862
1410	0.150398
1422	0.1012
1434	0.0897422
1446	0.0961524
1458	0.093348
1470	0.0728354
1482	0.0547267
1494	0.0446307
1506	0.0383808
1518	0.029647
1530	0.0284451
1542	0.0185093
1554	0.0141024
1566	0.0108171
1578	0.00793257
1590	0.00608965
1602	0.00777232
1614	0.0125799
1626	0.0122594
1638	0.023317
1650	0.0370187
1662	0.0338937
1674	0.0316502
1686	0.0209131
1698	0.00320508
1710	0.0059294
1722	0.00905435
1734	0.00745181
1746	0.0139421
1758	0.0188298
1770	0.0210734
1782	0.0181888
1794	0.015144
1806	0.0108973
1818	0.00857359
1830	0.00745181
1842	0.0110575
1854	0.0149837
1866	0.013862
1878	0.0110575
1890	0.00737168
1902	0.00432686
1914	0.0020833
1926	0.00552876
1938	0.00496787
1950	0.00424673
1962	0.00576914
1974	0.00512813
1986	0.00432686
1998	0.00488775
2010	0.005048
2022	0.00272432
2034	0.00464737
2046	0.00248394
2058	0.00280445
2070	0.00424673
2082	0.00480762
2094	0.00400635
2106	0.00512813
2118	0.00520826
2130	0.0029647
2142	0.00392622
2154	0.0029647
2166	0.00392622
2178	0.00408648
2190	0.00392622
2202	0.005048
2214	0.005048
2226	0.00392622
2238	0.00400635
2250	0.00520826
2262	0.00256406
2274	0.00408648
2286	0.005048
2298	0.00288457
2310	0.00376597
2322	0.00673067
2334	0.00312495
2346	0.00272432
2358	0.010096
2370	0.00608965
2382	0.00633003
2394	0.00496787
2406	0.00584927
2418	0.00536851
2430	0.00769219
2442	0.00616978
2454	0.00616978
2466	0.00937486
2478	0.00929473
2490	0.0118588
2502	0.0108973
2514	0.00953511
2526	0.00608965
2538	0.005048
2550	0.0041666
2562	0.00584927
2574	0.00705118
2586	0.00785245
2598	0.0130607
2610	0.0177081
2622	0.0198715
2634	0.0209131
2646	0.0228362
2658	0.0213138
2670	0.0263618
2682	0.023317
2694	0.0153043
2706	0.0152241
2718	0.0167465
2730	0.0187497
2742	0.0181087
2754	0.0185093
2766	0.0197112
2778	0.0288457
2790	0.0303681
2802	0.025881
2814	0.0327719
2826	0.0421468
2838	0.0604959
2850	0.0779636
2862	0.0866173
2874	0.0822103
2886	0.0919858
2898	0.0887807
2910	0.109774
2922	0.18902
2934	0.212978
2946	0.257128
2958	0.227721
2970	0.172513
2982	0.15761
2994	0.172433
3006	0.183972
3018	0.154805
3030	0.119309
3042	0.116825
3054	0.101922
3066	0.099037
3078	0.0740373
3090	0.0440699
3102	0.0304483
3114	0.0170671
3126	0.0150639
3138	0.0149036
3150	0.0124197
3162	0.00961524
3174	0.0110575
3186	0.00745181
3198	0.00600952
3210	0.00857359
3222	0.00472749
3234	0.0088941
3246	0.0114582
3258	0.0146632
3270	0.0165863
3282	0.0205926
3294	0.0128203
3306	0.012019
3318	0.00945499
3330	0.00400635
3342	0.00793257
3354	0.00624991
3366	0.00600952
3378	0.00841333
3390	0.00849346
3402	0.00392622
3414	0.00624991
3426	0.00665054
3438	0.00280445
3450	0.00937486
3462	0.00953511
3474	0.00865372
3486	0.00969537
3498	0.0117787
3510	0.00496787
3522	0.00769219
3534	0.0059294
3546	0.00560889
3558	0.00921461
3570	0.0143427
3582	0.0181087
3594	0.0298072
3606	0.0600953
3618	0.164501
3630	0.494544
3642	0.799187
3654	0.796382
3666	0.701191
3678	0.247993
3690	0.0540056
3702	0.0271631
3714	0.0144229
3726	0.00953511
3738	0.0101761
3750	0.00176279
3762	0.00264419
3774	0.00192305
3786	0.00104165
3798	0.00104165
3810	0.00256406
3822	0.00168267
3834	0.00080127
3846	0.00488775
3858	0.00160254
3870	0.00104165
3882	0.00104165
3894	0.00104165
3906	0.000961524
3918	0.00128203
3930	0.0041666
3942	0.0103364
3954	0
3966	0.00104165
