Infrared Spectrum: 2-Propenenitrile
Formula: C 3 H 3 N
CAS: 107-13-1
State: gas
Origin: Sadtler Research Labs Under US-EPA Contract
1/CM	ABSORBANCE
450	0.00695217
462	0.0063928
474	0.00855037
486	0.00655262
498	0.0055937
510	0.00247721
522	0.00303658
534	0.00231739
546	0.00607316
558	0.0063928
570	0.00359595
582	0.00415532
594	0
606	0.012386
618	0.0214958
630	0.0448295
642	0.0770332
654	0.110436
666	0.111075
678	0.181795
690	0.089659
702	0.0930152
714	0.080789
726	0.056816
738	0.0367586
750	0.0250118
762	0.0261306
774	0.0365988
786	0.0222949
798	0.0262904
810	0.0100687
822	0.0047946
834	0.00439505
846	0.0234136
858	0.0508228
870	0.0501036
882	0.0810287
894	0.112114
906	0.193142
918	0.299982
930	0.403625
942	0.471389
954	0.7991
966	0.592373
978	0.48825
990	0.480339
1002	0.38141
1014	0.242207
1026	0.139043
1038	0.0640878
1050	0.0286078
1062	0.0189387
1074	0.0417929
1086	0.0633686
1098	0.0433112
1110	0.0359595
1122	0.00871019
1134	0.00447496
1146	0.00367586
1158	0.00271694
1170	0.00327631
1182	0.00255712
1194	0.00383568
1206	0.00527406
1218	0.00327631
1230	0.00271694
1242	0.00215757
1254	0.0055937
1266	0.0135847
1278	0.0134249
1290	0.0201373
1302	0.0165414
1314	0.0196579
1326	0.015982
1338	0.0258908
1350	0.0277288
1362	0.0264502
1374	0.0381171
1386	0.0507428
1398	0.104283
1410	0.0867823
1422	0.102445
1434	0.0732775
1446	0.0405943
1458	0.0226944
1470	0.0122262
1482	0.00663253
1494	0.00439505
1506	0.00519415
1518	0.00303658
1530	0.00231739
1542	0.00695217
1554	0.0063928
1566	0.0095892
1578	0.0190985
1590	0.0395554
1602	0.07104
1614	0.0627294
1626	0.0858233
1638	0.0607316
1650	0.0350006
1662	0.0396354
1674	0.0234136
1686	0.013345
1698	0.00783118
1710	0.00431514
1722	0.00343613
1734	0.00303658
1746	0.0015982
1758	0.00135847
1770	0.00175802
1782	0.00183793
1794	0.00287676
1806	0.00167811
1818	0.00423523
1830	0.00591334
1842	0.0055937
1854	0.00910974
1866	0.0120664
1878	0.0281283
1890	0.0664851
1902	0.0828667
1914	0.0854238
1926	0.0737569
1938	0.0281283
1950	0.0202172
1962	0.0117468
1974	0.00775127
1986	0.00543388
1998	0.00391559
2010	0.00279685
2022	0.00287676
2034	0.00287676
2046	0.00191784
2058	0.00127856
2070	0.00183793
2082	0.0023973
2094	0.00183793
2106	0.00135847
2118	0.00151829
2130	0.00095892
2142	0.00143838
2154	0.00151829
2166	0.00119865
2178	0.00191784
2190	0.00135847
2202	0.00191784
2214	0.00623298
2226	0.0118267
2238	0.0107878
2250	0.0136646
2262	0.00663253
2274	0.00727181
2286	0.0055937
2298	0.00679235
2310	0.00351604
2322	0.00271694
2334	0.00183793
2346	0.00279685
2358	0.0015982
2370	0.00167811
2382	0.00303658
2394	0.00295667
2406	0.00391559
2418	0.00247721
2430	0.0031964
2442	0.0039955
2454	0.00439505
2466	0.00431514
2478	0.00607316
2490	0.00407541
2502	0.00295667
2514	0.00295667
2526	0.00255712
2538	0.00295667
2550	0.00295667
2562	0.00335622
2574	0.0023973
2586	0.00183793
2598	0.00095892
2610	7.991e-05
2622	0.00055937
2634	0
2646	0.00039955
2658	0.00111874
2670	0.00111874
2682	0.00215757
2694	0.00359595
2706	0.00311649
2718	0.0039955
2730	0.00255712
2742	0.00191784
2754	0.0015982
2766	0.00167811
2778	0.00263703
2790	0.00183793
2802	0.00255712
2814	0.00191784
2826	0.00095892
2838	0.00071919
2850	0.00071919
2862	0.00167811
2874	0.00231739
2886	0.00263703
2898	0.0023973
2910	0.00279685
2922	0.00183793
2934	0.00199775
2946	0.00087901
2958	0.00191784
2970	0.00199775
2982	0.00279685
2994	0.00287676
3006	0.00551379
3018	0.0157423
3030	0.0334024
3042	0.0347609
3054	0.0398751
3066	0.0214159
3078	0.010628
3090	0.0155824
3102	0.0290872
3114	0.0467474
3126	0.0334024
3138	0.0460282
3150	0.0163016
3162	0.00815082
3174	0.0055937
3186	0.00247721
3198	0.00175802
3210	0.00183793
3222	0.00071919
3234	0.00175802
3246	0.00135847
3258	0.0007991
3270	0.00183793
3282	0.00151829
3294	0.00255712
3306	0.00191784
3318	0.00279685
3330	0.00335622
3342	0.00415532
3354	0.00279685
3366	0.0023973
3378	0.00199775
3390	0.00255712
3402	0.00199775
3414	0.00263703
3426	0.00247721
3438	0.00103883
3450	0.00143838
3462	0.00127856
3474	0.00127856
3486	0.00199775
3498	0.00303658
3510	0.00367586
3522	0.00143838
3534	0.00191784
3546	0.00119865
3558	0.00143838
3570	0.00407541
3582	0.0015982
3594	0.00255712
3606	0.00311649
3618	0.0047946
3630	0.00591334
3642	0.00279685
3654	0.00511424
3666	0.00343613
3678	0.00447496
3690	0.00343613
3702	0.00175802
3714	0.00191784
3726	0.00215757
3738	0.00135847
3750	0.00151829
3762	0.00127856
3774	0.00151829
3786	0.00167811
3798	0.00047946
3810	0.00231739
3822	0.00215757
3834	0.00311649
3846	0.00335622
3858	0.00423523
3870	0.00199775
3882	0.00087901
3894	0.00255712
3906	0.00135847
3918	0.00135847
3930	0
3942	0.0015982
3954	0.00135847
3966	0.00175802
