Infrared Spectrum: PROPENENITRILE
Formula: C3 H3 N
CAS: 107-13-1
State: SOLUTION (10% IN CCl4 FOR 3800-1300, 10% IN CS2 FOR 1300-650, 10% IN CCl4 FOR 650-240 CM^-^1) VERSUS SOLVENT
Class: COBLENTZ III
Instrument: PERKIN-ELMER 521 (GRATING)
Instrument parameters: FILTERS AT 3150, 2500, 2000, 1150, 700, 410; GRATING CHANGES AT 2000, 630 CM^-^1
Sampling: TRANSMISSION
Path length: 0.011, 0.010, AND 0.010 CM (CsBr CELL)
Resolution: 4
Origin: DOW CORNING CORP.
1/CM	TRANSMITTANCE
231.527	0.852
241.379	0.851
251.231	0.842
261.084	0.841
270.936	0.84
280.788	0.841
290.64	0.845
300.493	0.846
310.345	0.851
320.197	0.849
330.049	0.848
339.901	0.852
349.754	0.871
359.606	0.88
369.458	0.891
379.31	0.895
389.163	0.902
399.015	0.903
408.867	0.904
418.719	0.908
428.571	0.91
438.424	0.908
448.276	0.915
458.128	0.911
467.98	0.926
477.833	0.935
487.685	0.942
497.537	0.947
507.389	0.946
517.241	0.948
527.094	0.95
536.946	0.947
546.798	0.942
556.65	0.94
566.503	0.94
576.355	0.944
586.207	0.948
596.059	0.953
605.911	0.936
615.764	0.927
625.616	0.938
635.468	0.923
645.32	0.892
655.173	0.848
665.025	0.802
674.877	0.681
684.729	0.48
694.581	0.626
704.434	0.857
714.286	0.928
724.138	0.962
733.99	0.974
743.843	0.978
753.695	0.987
763.547	0.998
773.399	1.008
783.251	1.006
793.104	0.978
802.956	0.957
812.808	0.986
822.66	0.987
832.513	0.983
842.365	0.981
852.217	0.974
862.069	0.938
871.922	0.851
881.774	0.946
891.626	0.93
901.478	0.897
911.33	0.849
921.183	0.789
931.035	0.689
940.887	0.511
950.739	0.226
960.592	0.046
970.444	0.059
980.296	0.269
990.148	0.573
1000	0.711
1009.85	0.771
1019.7	0.791
1029.56	0.829
1039.41	0.876
1049.26	0.902
1059.11	0.912
1068.97	0.911
1078.82	0.897
1088.67	0.744
1098.52	0.887
1108.37	0.957
1118.23	0.947
1128.08	0.962
1137.93	0.997
1147.78	1.013
1157.64	1.012
1167.49	0.998
1177.34	0.991
1187.19	0.99
1197.04	0.991
1206.9	0.99
1216.75	0.985
1226.6	0.981
1236.45	0.979
1246.31	0.967
1256.16	0.951
1266.01	0.932
1275.86	0.906
1285.71	0.88
1295.57	0.869
1305.42	0.863
1315.27	0.864
1325.12	0.863
1334.98	0.864
1344.83	0.852
1354.68	0.84
1364.53	0.81
1374.38	0.817
1384.24	0.818
1394.09	0.785
1403.94	0.671
1413.79	0.182
1423.65	0.747
1433.5	0.8
1443.35	0.857
1453.2	0.873
1463.05	0.881
1472.91	0.891
1482.76	0.893
1492.61	0.903
1502.46	0.911
1512.32	0.92
1522.17	0.924
1532.02	0.935
1541.87	0.95
1551.72	0.935
1561.58	0.903
1571.43	0.892
1581.28	0.883
1591.13	0.848
1600.99	0.798
1610.84	0.699
1620.69	0.812
1630.54	0.833
1640.39	0.813
1650.25	0.794
1660.1	0.832
1669.95	0.869
1679.8	0.88
1689.66	0.881
1699.51	0.887
1709.36	0.883
1719.21	0.875
1729.06	0.888
1738.92	0.897
1748.77	0.902
1758.62	0.904
1768.47	0.903
1778.33	0.902
1788.18	0.904
1798.03	0.903
1807.88	0.903
1817.73	0.902
1827.59	0.897
1837.44	0.893
1847.29	0.892
1857.14	0.893
1867	0.892
1876.85	0.885
1886.7	0.875
1896.55	0.855
1906.4	0.809
1916.26	0.742
1926.11	0.734
1935.96	0.767
1945.81	0.828
1955.67	0.863
1965.52	0.871
1975.37	0.879
1985.22	0.892
1995.07	0.9
2004.93	0.897
2014.78	0.898
2024.63	0.899
2034.48	0.899
2044.34	0.899
2054.19	0.899
2064.04	0.899
2073.89	0.9
2083.74	0.9
2093.6	0.9
2103.45	0.899
2113.3	0.899
2123.15	0.8965
2133.01	0.895
2142.86	0.893
2152.71	0.892
2162.56	0.888
2172.41	0.8836
2182.27	0.881
2192.12	0.877
2201.97	0.8692
2211.82	0.8533
2221.68	0.7532
2231.53	0.4685
2241.38	0.6031
2251.23	0.8583
2261.08	0.8699
2270.94	0.8557
2280.79	0.8164
2290.64	0.8789
2300.49	0.8938
2310.35	0.895
2320.2	0.896
2330.05	0.897
2339.9	0.897
2349.75	0.896
2359.61	0.8942
2369.46	0.893
2379.31	0.8924
2389.16	0.893
2399.02	0.895
2408.87	0.895
2418.72	0.895
2428.57	0.895
2438.42	0.8926
2448.28	0.893
2458.13	0.8903
2467.98	0.8914
2477.83	0.892
2487.69	0.895
2497.54	0.8949
2507.39	0.893
2517.24	0.8956
2527.09	0.895
2536.95	0.895
2546.8	0.896
2556.65	0.896
2566.5	0.896
2576.36	0.895
2586.21	0.896
2596.06	0.897
2605.91	0.8983
2615.77	0.9
2625.62	0.899
2635.47	0.902
2645.32	0.899
2655.17	0.896
2665.03	0.8957
2674.88	0.8911
2684.73	0.883
2694.58	0.8793
2704.44	0.8953
2714.29	0.9
2724.14	0.9
2733.99	0.897
2743.84	0.902
2753.7	0.902
2763.55	0.9
2773.4	0.899
2783.25	0.8957
2793.11	0.8953
2802.96	0.9
2812.81	0.899
2822.66	0.897
2832.51	0.896
2842.37	0.8927
2852.22	0.8877
2862.07	0.8825
2871.92	0.8727
2881.78	0.8695
2891.63	0.876
2901.48	0.876
2911.33	0.8728
2921.18	0.8712
2931.04	0.8695
2940.89	0.872
2950.74	0.868
2960.59	0.865
2970.45	0.863
2980.3	0.8546
2990.15	0.8535
3000	0.863
3009.85	0.8519
3019.71	0.8372
3029.56	0.766
3039.41	0.8065
3049.26	0.8258
3059.12	0.8044
3068.97	0.7654
3078.82	0.8057
3088.67	0.8236
3098.52	0.8211
3108.38	0.838
3118.23	0.8465
3128.08	0.8592
3137.93	0.872
3147.79	0.8774
3157.64	0.883
3167.49	0.8912
3177.34	0.8933
3187.19	0.896
3197.05	0.897
3206.9	0.8992
3216.75	0.903
3226.6	0.906
3236.46	0.907
3246.31	0.907
3256.16	0.906
3266.01	0.904
3275.86	0.906
3285.72	0.904
3295.57	0.903
3305.42	0.8999
3315.27	0.8925
3325.13	0.899
3334.98	0.9
3344.83	0.899
3354.68	0.9
3364.53	0.9002
3374.39	0.902
3384.24	0.9002
3394.09	0.902
3403.94	0.902
3413.8	0.902
3423.65	0.9021
3433.5	0.9018
3443.35	0.902
3453.2	0.903
3463.06	0.902
3472.91	0.902
3482.76	0.8999
3492.61	0.896
3502.47	0.8928
3512.32	0.887
3522.17	0.885
3532.02	0.8809
3541.87	0.8769
3551.73	0.875
3561.58	0.879
3571.43	0.8841
3581.28	0.893
3591.14	0.897
3600.99	0.9031
3610.84	0.9019
3620.69	0.8949
3630.54	0.891
3640.4	0.896
3650.25	0.8959
3660.1	0.888
3669.95	0.8829
3679.81	0.877
3689.66	0.8921
3699.51	0.9071
3709.36	0.919
3719.21	0.924
3729.07	0.928
3738.92	0.9309
3748.77	0.928
3758.62	0.927
3768.48	0.927
3778.33	0.93
3788.18	0.93
