Infrared Spectrum: 1,2-Pentadiene
Formula: C 5 H 8
CAS: 591-95-7
State: gas
Instrument: HP-GC/MS/IRD
Origin: NIST Mass Spectrometry Data Center
1/CM	ABSORBANCE
550	0.0025984
562	0.001376
574	0.0009536
586	0.000736
598	0.0008032
610	0.0007968
622	0.0007904
634	0.0006464
646	0.000336
658	0.0001696
670	0.0002816
682	0.0003232
694	0.000336
706	0.0001824
718	0.0001344
730	8.96e-05
742	0.0003008
754	0.0005408
766	0.0011072
778	0.0018016
790	0.0029088
802	0.0046048
814	0.0078976
826	0.0135392
838	0.0206272
850	0.0231104
862	0.0223264
874	0.0153248
886	0.009424
898	0.0050464
910	0.002528
922	0.0014144
934	0.0007648
946	0.0004704
958	0.0003296
970	0.0003648
982	0.0006144
994	0.0008896
1006	0.001216
1018	0.001216
1030	0.0012
1042	0.001312
1054	0.0016672
1066	0.0018816
1078	0.0017632
1090	0.0012224
1102	0.0009376
1114	0.000768
1126	0.0006944
1138	0.000704
1150	0.0006528
1162	0.0006336
1174	0.0005984
1186	0.0004608
1198	0.0003616
1210	0.0002304
1222	0.00016
1234	0.0002752
1246	0.0004288
1258	0.0006368
1270	0.0012512
1282	0.0029568
1294	0.0045952
1306	0.0060416
1318	0.0050528
1330	0.0043072
1342	0.0031808
1354	0.002496
1366	0.0019712
1378	0.0021184
1390	0.0024032
1402	0.0025504
1414	0.0027776
1426	0.0039456
1438	0.0053824
1450	0.005984
1462	0.0054912
1474	0.0037664
1486	0.0026016
1498	0.0016416
1510	0.0010432
1522	0.0006784
1534	0.0004416
1546	0.0003584
1558	0.0003136
1570	0.000272
1582	0.000256
1594	0.0001792
1606	0.0002272
1618	0.0002176
1630	0.000256
1642	0.0003552
1654	0.0004192
1666	0.0006976
1678	0.0015392
1690	0.0023744
1702	0.0027296
1714	0.0022048
1726	0.0013952
1738	0.0007904
1750	0.0004032
1762	0.000176
1774	6.72e-05
1786	2.56e-05
1798	0
1810	9.6e-06
1822	0
1834	6.72e-05
1846	0.0001088
1858	0.0002112
1870	0.0003648
1882	0.000576
1894	0.0010624
1906	0.0019712
1918	0.0039136
1930	0.007872
1942	0.0127712
1954	0.0144704
1966	0.0118176
1978	0.0052928
1990	0.0020736
2002	0.0010912
2014	0.0006624
2026	0.0003584
2038	0.0002272
2050	0.0001856
2062	0.0001216
2074	0.000144
2086	9.28e-05
2098	6.72e-05
2110	6.08e-05
2122	9.6e-05
2134	8e-05
2146	8.96e-05
2158	9.28e-05
2170	9.6e-05
2182	8e-05
2194	0.0001088
2206	0.000112
2218	0.000144
2230	0.0001632
2242	0.0001568
2254	0.000128
2266	0.0001472
2278	0.0001152
2290	0.000112
2302	7.68e-05
2314	9.28e-05
2326	8e-05
2338	8e-05
2350	0.0001184
2362	0.0001632
2374	0.0001888
2386	0.0001664
2398	0.0001696
2410	0.0001504
2422	0.0002528
2434	0.0002368
2446	0.000224
2458	0.0002048
2470	0.0001664
2482	0.000112
2494	0.0001344
2506	0.0001568
2518	0.0001248
2530	0.0001312
2542	0.0001504
2554	0.0001888
2566	0.000224
2578	0.0002304
2590	0.0002528
2602	0.0002144
2614	0.0001888
2626	0.0002016
2638	0.0002304
2650	0.000192
2662	0.0002048
2674	0.0002272
2686	0.000224
2698	0.000288
2710	0.0003552
2722	0.0005088
2734	0.0007008
2746	0.0008032
2758	0.0008576
2770	0.0008864
2782	0.0010112
2794	0.0011808
2806	0.001408
2818	0.0017408
2830	0.0026368
2842	0.0042656
2854	0.0068608
2866	0.0096448
2878	0.013232
2890	0.0144064
2902	0.0159872
2914	0.0171456
2926	0.0191136
2938	0.0221856
2950	0.0237888
2962	0.029232
2974	0.0317376
2986	0.030192
2998	0.0203776
3010	0.0132064
3022	0.0074944
3034	0.004496
3046	0.0033792
3058	0.0029856
3070	0.0028
3082	0.0023808
3094	0.001824
3106	0.001376
3118	0.0010496
3130	0.0009344
3142	0.0007904
3154	0.0007232
3166	0.0005728
3178	0.0004864
3190	0.000448
3202	0.0004896
3214	0.0004288
3226	0.0003648
3238	0.0003008
3250	0.0003424
3262	0.0002976
3274	0.0002976
3286	0.0003424
3298	0.0002944
3310	0.00024
3322	0.0002784
3334	0.000192
3346	0.000192
3358	0.0001184
3370	0.0001504
3382	0.0001984
3394	0.00016
3406	0.0001472
3418	0.0001824
3430	0.0001696
3442	0.0001216
3454	0.0001728
3466	0.0001184
3478	0.000112
3490	0.0001728
3502	0.0001504
3514	7.68e-05
3526	0.0001248
3538	6.4e-05
3550	0.0001152
3562	0.0001408
3574	0.0001536
3586	0.0001792
3598	0.000128
3610	0.000176
3622	0.0002112
3634	0.0002464
3646	0.0001568
3658	0.0001984
3670	0.0001792
3682	0.0001536
3694	0.0002272
3706	0.0001504
3718	0.0002528
3730	0.0002304
3742	0.0001888
3754	0.0001472
3766	0.0002208
3778	0.0001792
3790	0.0002592
3802	0.000224
3814	0.0002624
3826	0.0002784
3838	0.0001984
