Infrared Spectrum: 1,1,2,2-Tetrabromoethane
Formula: C2 H2 Br4
CAS: 79-27-6
State: SOLUTION (10% CCl4 FOR 3800-1330, 10% CS2 FOR 1330-450)
Class: COBLENTZ III
Instrument: DOW KBr FOREPRISM-GRATING
Instrument parameters: BLAZED AT 3.5, 12.0, 20.0 MICRON AND CHANGED AT 5.0, 7.5, 14.9 MICRON
Sampling: TRANSMISSION
Path length: 0.0108 CM, 0.0114 CM
Resolution: 2
Origin: DOW CHEMICAL COMPANY
1/CM	TRANSMITTANCE
3790	0.9178
3781	0.9218
3772	0.9206
3763	0.9238
3754	0.9216
3745	0.9172
3736	0.9177
3727	0.9238
3718	0.9272
3709	0.932
3700	0.9252
3691	0.917
3682	0.9125
3673	0.9201
3664	0.9222
3655	0.9212
3646	0.9261
3637	0.9219
3628	0.9204
3619	0.9205
3610	0.9193
3601	0.9197
3592	0.9211
3583	0.92
3574	0.9169
3565	0.9116
3556	0.9066
3547	0.903
3538	0.8994
3529	0.8989
3520	0.8987
3511	0.8963
3502	0.8905
3493	0.8882
3484	0.8857
3475	0.8829
3466	0.8788
3457	0.8737
3448	0.868
3439	0.862
3430	0.8561
3421	0.8505
3412	0.8448
3403	0.8418
3394	0.8414
3385	0.842
3376	0.8447
3367	0.8479
3358	0.8524
3349	0.8578
3340	0.8637
3331	0.8687
3322	0.8712
3313	0.8714
3304	0.8739
3295	0.8753
3286	0.8782
3277	0.8819
3268	0.8877
3259	0.8917
3250	0.8958
3241	0.8981
3232	0.9003
3223	0.9033
3214	0.9061
3205	0.9024
3196	0.9054
3187	0.9095
3178	0.9104
3169	0.9124
3160	0.916
3151	0.9162
3142	0.9149
3133	0.9172
3124	0.918
3115	0.9187
3106	0.9209
3097	0.9239
3088	0.9226
3079	0.9204
3070	0.9227
3061	0.9186
3052	0.917
3043	0.9208
3034	0.9194
3025	0.9086
3016	0.8896
3007	0.8609
2998	0.8248
2989	0.7458
2980	0.7709
2971	0.8624
2962	0.9141
2953	0.9208
2944	0.9231
2935	0.923
2926	0.9224
2917	0.9201
2908	0.9204
2899	0.9196
2890	0.923
2881	0.9248
2872	0.925
2863	0.9243
2854	0.9212
2845	0.9184
2836	0.9177
2827	0.9203
2818	0.9223
2809	0.9227
2800	0.9208
2791	0.9188
2782	0.9205
2773	0.923
2764	0.9235
2755	0.9237
2746	0.9236
2737	0.9236
2728	0.9234
2719	0.9229
2710	0.9227
2701	0.923
2692	0.9234
2683	0.9233
2674	0.9231
2665	0.9227
2656	0.9238
2647	0.923
2638	0.9206
2629	0.9221
2620	0.9223
2611	0.9224
2602	0.9227
2593	0.923
2584	0.9233
2575	0.9224
2566	0.9214
2557	0.9198
2548	0.9193
2539	0.9228
2530	0.9261
2521	0.9264
2512	0.9259
2503	0.9237
2494	0.9237
2485	0.9237
2476	0.925
2467	0.9247
2458	0.9229
2449	0.9219
2440	0.921
2431	0.9203
2422	0.9195
2413	0.9198
2404	0.9219
2395	0.922
2386	0.9237
2377	0.9241
2368	0.9211
2359	0.9225
2350	0.9264
2341	0.9283
2332	0.925
2323	0.9284
2314	0.9249
2305	0.9213
2296	0.9205
2287	0.9177
2278	0.9149
2269	0.9117
2260	0.9101
2251	0.9127
2242	0.9159
2233	0.9187
2224	0.9201
2215	0.92
2206	0.9214
2197	0.9227
2188	0.9216
2179	0.9217
2170	0.9231
2161	0.923
2152	0.9235
2143	0.9228
2134	0.9227
2125	0.9261
2116	0.9316
2107	0.9333
2098	0.9255
2089	0.9254
2080	0.9257
2071	0.9263
2062	0.9252
2053	0.9247
2044	0.9257
2035	0.9301
2026	0.9308
2017	0.9274
2008	0.9249
1999	0.924
1990	0.9151
1981	0.9121
1972	0.91
1963	0.9188
1954	0.9138
1945	0.9115
1936	0.9126
1927	0.9126
1918	0.9122
1909	0.9114
1900	0.9118
1891	0.9101
1882	0.9094
1873	0.9065
1864	0.9081
1855	0.9062
1846	0.9053
1837	0.9052
1828	0.9024
1819	0.9037
1810	0.9043
1801	0.9033
1792	0.9057
1783	0.9095
1774	0.905
1765	0.9087
1756	0.9101
1747	0.9053
1738	0.8996
1729	0.9059
1720	0.9052
1711	0.9024
1702	0.9028
1693	0.9012
1684	0.8994
1675	0.8978
1666	0.8916
1657	0.8824
1648	0.8669
1639	0.8573
1630	0.8696
1621	0.8827
1612	0.8826
1603	0.8696
1594	0.8676
1585	0.8512
1576	0.8475
1567	0.8356
1558	0.8199
1549	0.8173
1540	0.7734
1531	0.8226
1522	0.8382
1513	0.8516
1504	0.858
1495	0.8799
1486	0.8905
1477	0.8938
1468	0.8966
1459	0.8984
1450	0.9066
1441	0.9105
1432	0.9094
1423	0.9104
1414	0.9168
1405	0.9281
1396	0.9243
1387	0.9278
1378	0.9151
1369	0.9131
1360	0.909
1351	0.9126
1342	0.9073
1333	0.9107
1324	0.9067
1315	0.9007
1306	0.8973
1297	0.8963
1288	0.9014
1279	0.8941
1270	0.8962
1261	0.8889
1252	0.8515
1243	0.6512
1234	0.8257
1225	0.892
1216	0.9031
1207	0.9056
1198	0.8837
1189	0.8853
1180	0.8913
1171	0.8957
1162	0.8752
1153	0.7719
1144	0.5961
1135	0.4549
1126	0.7272
1117	0.8672
1108	0.903
1099	0.9086
1090	0.9144
1081	0.9125
1072	0.9089
1063	0.9122
1054	0.9151
1045	0.9133
1036	0.9162
1027	0.9158
1018	0.9119
1009	0.8063
1000	0.8893
991	0.9096
982	0.9136
973	0.9165
964	0.9173
955	0.9156
946	0.9146
937	0.9151
928	0.9142
919	0.9127
910	0.9107
901	0.9108
892	0.9089
883	0.9056
874	0.8902
865	0.8733
856	0.8576
847	0.8628
838	0.875
829	0.883
820	0.894
811	0.9019
802	0.9052
793	0.9035
784	0.8996
775	0.891
766	0.8831
757	0.8806
748	0.8859
739	0.8782
730	0.8446
721	0.7557
712	0.2363
703	0.141
694	0.6436
685	0.7991
676	0.8586
667	0.864
658	0.8804
649	0.8635
640	0.791
631	0.5605
622	0.7639
613	0.1605
604	0.6898
595	0.8257
586	0.8402
577	0.8248
568	0.881
559	0.8785
550	0.8756
541	0.83
532	0.7633
523	0.8349
514	0.8651
505	0.8626
496	0.8574
487	0.8515
478	0.8429
469	0.833
460	0.8283
451	0.8067
442	0.7815
