Infrared Spectrum: Ethane, 1,1,2,2-tetrabromo-
Formula: C 2 H 2 Br 4
CAS: 79-27-6
State: gas
Origin: Sadtler Research Labs Under US-EPA Contract
1/CM	ABSORBANCE
450	0.184478
462	0.0336672
474	0.0016603
486	0.0256424
498	0.0246278
510	0.0149427
522	0.0303466
534	0.110595
546	0.0866124
558	0.0207538
570	0.0252735
582	0.123047
594	0.219344
606	0.179682
618	0.725367
630	0.340177
642	0.508329
654	0.224879
666	0.0535909
678	0.0368956
690	0.106536
702	0.595587
714	0.92239
726	0.536647
738	0.0669655
750	0.027395
762	0.0621691
774	0.0406774
786	0.0202926
798	0.0164185
810	0.0180788
822	0.0306233
834	0.056727
846	0.0320992
858	0.0120833
870	0.0124523
882	0.00986957
894	0.0100541
906	0.0120833
918	0.00913166
930	0.0102385
942	0.0118066
954	0.00784032
966	0.00793255
978	0.0121755
990	0.0188168
1002	0.0402162
1014	0.0559891
1026	0.0106075
1038	0.00959286
1050	0.0108842
1062	0.0133747
1074	0.0120833
1086	0.0122678
1098	0.0190012
1110	0.0297932
1122	0.0537753
1134	0.500766
1146	0.442286
1158	0.184755
1170	0.0363422
1182	0.0213994
1194	0.0283174
1206	0.0285941
1218	0.0157729
1230	0.0248123
1242	0.179682
1254	0.232258
1266	0.0499935
1278	0.0148505
1290	0.0147582
1302	0.0162341
1314	0.010423
1326	0.00913166
1338	0.00811703
1350	0.00968509
1362	0.0116221
1374	0.00830151
1386	0.00784032
1398	0.00774808
1410	0.00673345
1422	0.00682569
1434	0.00719464
1446	0.00627225
1458	0.00636449
1470	0.00599553
1482	0.0054421
1494	0.00645673
1506	0.00479643
1518	0.00516538
1530	0.00820927
1542	0.0075636
1554	0.00673345
1566	0.00728688
1578	0.0059033
1590	0.00636449
1602	0.00608777
1614	0.00599553
1626	0.00701016
1638	0.00599553
1650	0.0059033
1662	0.00664121
1674	0.00664121
1686	0.0071024
1698	0.00654897
1710	0.00664121
1722	0.00765584
1734	0.00562658
1746	0.00581106
1758	0.00664121
1770	0.00599553
1782	0.00645673
1794	0.00516538
1806	0.0059033
1818	0.00627225
1830	0.00525762
1842	0.0054421
1854	0.00673345
1866	0.00645673
1878	0.00673345
1890	0.00534986
1902	0.00608777
1914	0.00627225
1926	0.00608777
1938	0.00525762
1950	0.0071024
1962	0.00682569
1974	0.0054421
1986	0.00461195
1998	0.00488867
2010	0.00525762
2022	0.00525762
2034	0.00433523
2046	0.00433523
2058	0.00451971
2070	0.00470419
2082	0.00479643
2094	0.00470419
2106	0.00470419
2118	0.00488867
2130	0.00461195
2142	0.0054421
2154	0.00534986
2166	0.00507314
2178	0.00479643
2190	0.00479643
2202	0.00442747
2214	0.00470419
2226	0.00451971
2238	0.00562658
2250	0.00830151
2262	0.0101463
2274	0.0102385
2286	0.00627225
2298	0.00479643
2310	0.00285941
2322	0.00682569
2334	0.0114376
2346	0.00691792
2358	0.00534986
2370	0.00534986
2382	0.00507314
2394	0.00645673
2406	0.00627225
2418	0.0092239
2430	0.00857823
2442	0.00839375
2454	0.00507314
2466	0.00387404
2478	0.0033206
2490	0.0033206
2502	0.00341284
2514	0.00239821
2526	0.00267493
2538	0.00258269
2550	0.00313613
2562	0.00239821
2574	0.00276717
2586	0.00221374
2598	0.00249045
2610	0.00258269
2622	0.00276717
2634	0.0021215
2646	0.00322836
2658	0.00276717
2670	0.00230598
2682	0.00295165
2694	0.00258269
2706	0.00249045
2718	0.00156806
2730	0.00156806
2742	0.00193702
2754	0.00175254
2766	0.00101463
2778	0.00156806
2790	0.000461195
2802	0.00193702
2814	0.00138358
2826	0.00156806
2838	0.00239821
2850	0.0021215
2862	0.00239821
2874	0.00285941
2886	0.00295165
2898	0.00322836
2910	0.00313613
2922	0.00313613
2934	0.0033206
2946	0.00470419
2958	0.00451971
2970	0.00498091
2982	0.00654897
2994	0.0217684
3006	0.119911
3018	0.0370801
3030	0.0449204
3042	0.00442747
3054	0.00442747
3066	0.00405852
3078	0.00433523
3090	0.0033206
3102	0.00405852
3114	0.00415075
3126	0.00322836
3138	0.00258269
3150	0.00285941
3162	0.00230598
3174	0.00304389
3186	0.0021215
3198	0.00230598
3210	0.00239821
3222	0.00267493
3234	0.00249045
3246	0.00156806
3258	0.00276717
3270	0.0016603
3282	0.00313613
3294	0.00230598
3306	0.00313613
3318	0.00295165
3330	0.00304389
3342	0.00110687
3354	0.0016603
3366	0.00175254
3378	0.00295165
3390	0.00119911
3402	0.00368956
3414	0.00221374
3426	0.00350508
3438	0.00230598
3450	0.00276717
3462	0.00350508
3474	0.00230598
3486	0.00230598
3498	0.00322836
3510	0.00221374
3522	0.000830151
3534	0.00322836
3546	0.0037818
3558	0.00405852
3570	0.0021215
3582	0.000461195
3594	0.00304389
3606	0.00313613
3618	0.00258269
3630	0.00341284
3642	0.00129135
3654	0.00359732
3666	0.00119911
3678	0.00221374
3690	0.00451971
3702	0.00488867
3714	0.00405852
3726	0.00701016
3738	0.00147582
3750	0.00129135
3762	0.00415075
3774	0.00276717
3786	0.00184478
3798	0.00470419
3810	0.000461195
3822	0.000737912
3834	0.00147582
3846	9.2239e-05
3858	0.00313613
3870	0.000645673
3882	0.000368956
3894	0.00249045
3906	0.0021215
3918	0.000368956
3930	0.00405852
3942	0.00230598
3954	0.00258269
3966	0.00295165
