Infrared Spectrum: 2-Bromo-1-chloro-2-methylpropane
Formula: C 4 H 8 Br Cl
CAS: 2074-80-8
State: gas
Instrument: HP-GC/MS/IRD
Origin: NIST Mass Spectrometry Data Center
1/CM	ABSORBANCE
550	0.000718
562	0.000979
574	0.002905
586	0.00423
598	0.002994
610	0.001403
622	0.000226
634	0.000156
646	9.7e-05
658	1.6e-05
670	7.7e-05
682	0.000124
694	0.00054
706	0.003078
718	0.005723
730	0.002637
742	0.000695
754	0.001358
766	0.001318
778	0.000404
790	0.000461
802	0.000683
814	0.000761
826	0.000452
838	0.00021
850	7.3e-05
862	5.3e-05
874	0.000242
886	0.000402
898	0.000301
910	7.3e-05
922	0.000107
934	0.000212
946	0.00035
958	0.000688
970	0.001466
982	0.001783
994	0.000815
1006	0.000284
1018	0.000253
1030	0.000222
1042	0.000229
1054	0.000406
1066	0.000413
1078	0.000699
1090	0.002487
1102	0.008327
1114	0.009264
1126	0.002301
1138	0.000797
1150	0.000744
1162	0.000574
1174	0.000453
1186	0.000509
1198	0.000925
1210	0.001237
1222	0.001142
1234	0.000932
1246	0.000766
1258	0.000644
1270	0.000966
1282	0.001068
1294	0.000768
1306	0.000508
1318	0.000145
1330	9e-05
1342	0.000169
1354	0.000707
1366	0.002053
1378	0.003898
1390	0.003578
1402	0.001701
1414	0.000627
1426	0.00087
1438	0.001843
1450	0.002751
1462	0.002716
1474	0.001676
1486	0.000579
1498	0.000211
1510	0.000115
1522	0.00012
1534	6.3e-05
1546	8.2e-05
1558	0.000105
1570	2.4e-05
1582	3.3e-05
1594	3.7e-05
1606	3.1e-05
1618	2.1e-05
1630	1.6e-05
1642	2.1e-05
1654	6.1e-05
1666	6.8e-05
1678	4.5e-05
1690	5.3e-05
1702	6.1e-05
1714	3e-05
1726	2.8e-05
1738	1e-06
1750	1.3e-05
1762	2.2e-05
1774	2.3e-05
1786	2.2e-05
1798	1.9e-05
1810	2.1e-05
1822	3.2e-05
1834	2.4e-05
1846	3.9e-05
1858	1.9e-05
1870	3.2e-05
1882	6.5e-05
1894	3.1e-05
1906	2.3e-05
1918	2.2e-05
1930	0
1942	2.7e-05
1954	5.2e-05
1966	3.1e-05
1978	3.4e-05
1990	5.9e-05
2002	4.4e-05
2014	3.4e-05
2026	4.5e-05
2038	3.6e-05
2050	6.1e-05
2062	4.2e-05
2074	3.4e-05
2086	4.3e-05
2098	4.4e-05
2110	2.3e-05
2122	2.8e-05
2134	4.5e-05
2146	4.2e-05
2158	6.5e-05
2170	7.1e-05
2182	8.3e-05
2194	6.8e-05
2206	7.7e-05
2218	6.4e-05
2230	3.9e-05
2242	4.2e-05
2254	5e-05
2266	3e-05
2278	4.8e-05
2290	5.5e-05
2302	4.2e-05
2314	7.5e-05
2326	7.7e-05
2338	6.7e-05
2350	6.5e-05
2362	7.5e-05
2374	5.3e-05
2386	7.3e-05
2398	6.5e-05
2410	2.5e-05
2422	3.5e-05
2434	1.6e-05
2446	2.9e-05
2458	5e-05
2470	5.5e-05
2482	5.1e-05
2494	3.7e-05
2506	2.3e-05
2518	4.2e-05
2530	3.7e-05
2542	7.5e-05
2554	5.8e-05
2566	3.2e-05
2578	6.6e-05
2590	4.8e-05
2602	6.6e-05
2614	4.7e-05
2626	9e-05
2638	6.5e-05
2650	6.6e-05
2662	9.8e-05
2674	6.9e-05
2686	0.000122
2698	0.000101
2710	0.000113
2722	0.000145
2734	0.000126
2746	0.00016
2758	9.3e-05
2770	0.000122
2782	7.8e-05
2794	6.7e-05
2806	0.000161
2818	0.000237
2830	0.000296
2842	0.000371
2854	0.000583
2866	0.000945
2878	0.001277
2890	0.001304
2902	0.00132
2914	0.001695
2926	0.002623
2938	0.003912
2950	0.00324
2962	0.002218
2974	0.004202
2986	0.006555
2998	0.00521
3010	0.002461
3022	0.000937
3034	0.000387
3046	0.000184
3058	0.000112
3070	0.000126
3082	0.000132
3094	0.000131
3106	0.00011
3118	0.000126
3130	0.000128
3142	7.8e-05
3154	7.9e-05
3166	9.3e-05
3178	0.000153
3190	0.000114
3202	0.000121
3214	0.000152
3226	0.000176
3238	0.000162
3250	0.000212
3262	0.000153
3274	0.000116
3286	8.9e-05
3298	8.1e-05
3310	0.000105
3322	5.4e-05
3334	5.1e-05
3346	4.8e-05
3358	9.1e-05
3370	8.2e-05
3382	0.000126
3394	9.5e-05
3406	0.000102
3418	0.000105
3430	3.8e-05
3442	0.000106
3454	0.000114
3466	1.3e-05
3478	9.3e-05
3490	4.2e-05
3502	6.6e-05
3514	8.1e-05
3526	9.6e-05
3538	0.000139
3550	5.5e-05
3562	9.6e-05
3574	5.3e-05
3586	6.9e-05
3598	9.2e-05
3610	6.9e-05
3622	9.7e-05
3634	0.000146
3646	5.6e-05
3658	7e-05
3670	8.9e-05
3682	0.000121
3694	9.6e-05
3706	0.000118
3718	0.000121
3730	0.000167
3742	0.000135
3754	0.000116
3766	0.000112
3778	4.3e-05
3790	7e-05
3802	9.4e-05
3814	0.000103
3826	0.000122
3838	0.000146
