Infrared Spectrum: 2-Butene, 2,3-dimethyl-
Formula: C 6 H 12
CAS: 563-79-1
State: gas
Origin: Sadtler Research Labs Under US-EPA Contract
1/CM	ABSORBANCE
450	0.00406056
462	0.00289315
474	0.00218255
486	0.00421283
498	0
510	0.00441586
522	0.0032992
534	0.00426359
546	0.0040098
558	0.00370526
570	0.00619235
582	0.00411132
594	0.00411132
606	0.00360375
618	0.00324845
630	0.00218255
642	0.00345148
654	0.00380678
666	0.00360375
678	0.00466964
690	0.00456813
702	0.00345148
714	0.00340072
726	0.00431434
738	0.00319769
750	0.00294391
762	0.00350223
774	0.0047204
786	0.00548176
798	0.00730901
810	0.00700447
822	0.00664917
834	0.00659841
846	0.00756279
858	0.00756279
870	0.00664917
882	0.00746128
894	0.00847642
906	0.00862869
918	0.00862869
930	0.00883172
942	0.0103037
954	0.0123847
966	0.0131461
978	0.0132476
990	0.0120802
1002	0.0101006
1014	0.00939004
1026	0.00837491
1038	0.00766431
1050	0.00847642
1062	0.00857793
1074	0.00893323
1086	0.00974534
1098	0.0118771
1110	0.0128923
1122	0.0149733
1134	0.0233482
1146	0.0477623
1158	0.0981133
1170	0.097961
1182	0.0530918
1194	0.0188308
1206	0.0111665
1218	0.0094408
1230	0.00898399
1242	0.00822263
1254	0.00801961
1266	0.00801961
1278	0.00862869
1290	0.0100499
1302	0.0104052
1314	0.012334
1326	0.0153286
1338	0.0195414
1350	0.0270027
1362	0.0458843
1374	0.0740545
1386	0.0810589
1398	0.0553251
1410	0.034464
1422	0.0351746
1434	0.045529
1446	0.0591827
1458	0.0634462
1470	0.0552744
1482	0.0429912
1494	0.034464
1506	0.0303527
1518	0.0294391
1530	0.0291853
1542	0.0288807
1554	0.0275103
1566	0.0245664
1578	0.0201505
1590	0.0150748
1602	0.0104559
1614	0.00781658
1626	0.00624311
1638	0.00568478
1650	0.00522797
1662	0.00466964
1674	0.00370526
1686	0.00324845
1698	0.0036545
1710	0.00395905
1722	0.00441586
1734	0.00441586
1746	0.00395905
1758	0.00340072
1770	0.00197952
1782	0.00172574
1794	0.00172574
1806	0.00167498
1818	0.00162422
1830	0.00167498
1842	0.00182725
1854	0.00197952
1866	0.00248709
1878	0.00299466
1890	0.00238558
1902	0.00238558
1914	0.00228407
1926	0.00172574
1938	0.00172574
1950	0.00121817
1962	0.00116741
1974	0.00111665
1986	0.0010659
1998	0.0010659
2010	0.000964383
2022	0.000964383
2034	0.00152271
2046	0.00172574
2058	0.00152271
2070	0.00182725
2082	0.00137044
2094	0.000609084
2106	0.000761355
2118	0.000710598
2130	0.000609084
2142	0.000609084
2154	0.000609084
2166	0.00050757
2178	0.00050757
2190	0.000456813
2202	0.000101514
2214	0.000558327
2226	0.00050757
2238	0.000964383
2250	0.000964383
2262	0.000710598
2274	0.000558327
2286	0.00121817
2298	0.00121817
2310	0.0010659
2322	0.00137044
2334	0.000862869
2346	0.0010659
2358	0.0017765
2370	0.00131968
2382	0.00192877
2394	0.00213179
2406	0.00223331
2418	0.00228407
2430	0.00279164
2442	0.00279164
2454	0.00233482
2466	0.00228407
2478	0.00152271
2490	0.00182725
2502	0.00233482
2514	0.00238558
2526	0.00284239
2538	0.00340072
2550	0.0032992
2562	0.00345148
2574	0.00299466
2586	0.00334996
2598	0.00350223
2610	0.00385753
2622	0.00345148
2634	0.00345148
2646	0.00294391
2658	0.00345148
2670	0.00299466
2682	0.00406056
2694	0.00517721
2706	0.00807036
2718	0.0136536
2730	0.0233482
2742	0.0283224
2754	0.0231452
2766	0.0186278
2778	0.0174604
2790	0.0185263
2802	0.0222316
2814	0.0322307
2826	0.0477623
2838	0.0747143
2850	0.135826
2862	0.272819
2874	0.373368
2886	0.383012
2898	0.345198
2910	0.406868
2922	0.500769
2934	0.480009
2946	0.305303
2958	0.174503
2970	0.137653
2982	0.165671
2994	0.236375
3006	0.279519
3018	0.257541
3030	0.186583
3042	0.123086
3054	0.0775567
3066	0.048676
3078	0.0315201
3090	0.0236528
3102	0.0174604
3114	0.0138567
3126	0.0104559
3138	0.00847642
3150	0.00609084
3162	0.00446662
3174	0.00355299
3186	0.00355299
3198	0.00304542
3210	0.00263936
3222	0.00258861
3234	0.00197952
3246	0.0017765
3258	0.00172574
3270	0.000710598
3282	0.00269012
3294	0.00258861
3306	0.00116741
3318	0.00116741
3330	0.00121817
3342	0.00121817
3354	0.00192877
3366	0.00121817
3378	0.00172574
3390	0.00131968
3402	0.00208104
3414	0.00258861
3426	0.00208104
3438	0.00223331
3450	0.00284239
3462	0.00167498
3474	0.0014212
3486	0.000862869
3498	0.00182725
3510	0.000964383
3522	0.00197952
3534	0.0032992
3546	0.000862869
3558	0.00208104
3570	0.000913626
3582	0.00137044
3594	0.00187801
3606	0.00192877
3618	0.000964383
3630	0.00131968
3642	0.0014212
3654	0.00238558
3666	0.00131968
3678	0.00131968
3690	0.00157347
3702	0.000964383
3714	0.00147195
3726	0.00203028
3738	0.00203028
3750	0.00213179
3762	0.00243634
3774	0.00208104
3786	0.00238558
3798	0.00258861
3810	0.00350223
3822	0.00304542
3834	0.00350223
3846	0.00350223
3858	0.00395905
3870	0.00355299
3882	0.00263936
3894	0.00345148
3906	0.00294391
3918	0.00446662
3930	0.0040098
3942	0.00355299
3954	0.00355299
3966	0.00487267
