Infrared Spectrum: ETHER, CHLOROMETHYL METHYL
Formula: C2 H5 Cl O
CAS: 107-30-2
State: GAS (100 mmHg, N2 ADDED, TOTAL PRESSURE 600 mmHg)
Class: COBLENTZ
Instrument: DOW KBr FOREPRISM-GRATING
Instrument parameters: GRATING CHANGED AT 5.0, 7.5, 15.0 MICRON
Sampling: TRANSMISSION
Path length: 5 CM
Resolution: 2
Origin: DOW CHEMICAL COMPANY
1/CM	TRANSMITTANCE
389.992	0.997
399.374	0.995
408.757	0.988
418.139	0.973
427.521	0.946
436.904	0.911
446.286	0.816
455.668	0.775
465.051	0.778
474.433	0.902
483.815	0.941
493.198	0.953
502.58	0.956
511.963	0.956
521.345	0.959
530.727	0.96
540.11	0.962
549.492	0.966
558.874	0.957
568.257	0.948
577.639	0.935
587.021	0.921
596.404	0.908
605.786	0.906
615.168	0.895
624.551	0.861
633.933	0.819
643.315	0.69
652.698	0.424
662.08	0.014
671.462	0.007
680.845	0.008
690.227	0.013
699.609	0.3791
708.992	0.733
718.374	0.918
727.757	0.981
737.139	1.001
746.521	1.004
755.904	1.004
765.286	1
774.668	0.992
784.051	0.973
793.433	0.951
802.815	0.948
812.198	0.95
821.58	0.976
830.962	0.982
840.345	0.986
849.727	0.985
859.109	0.983
868.492	0.979
877.874	0.966
887.256	0.921
896.639	0.816
906.021	0.5899
915.403	0.263
924.786	0.148
934.168	0.139
943.55	0.256
952.933	0.521
962.315	0.727
971.698	0.82
981.08	0.647
990.462	0.422
999.845	0.434
1009.23	0.4
1018.61	0.69
1027.99	0.765
1037.37	0.814
1046.76	0.833
1056.14	0.844
1065.52	0.836
1074.9	0.771
1084.29	0.664
1093.67	0.505
1103.05	0.1819
1112.43	0.007
1121.82	0.007
1131.2	0.007
1140.58	0.011
1149.96	0.112
1159.34	0.1161
1168.73	0.236
1178.11	0.141
1187.49	0.011
1196.87	0.017
1206.26	0.01
1215.64	0.1731
1225.02	0.527
1234.4	0.641
1243.79	0.674
1253.17	0.654
1262.55	0.591
1271.93	0.558
1281.32	0.551
1290.7	0.612
1300.08	0.606
1309.46	0.409
1318.84	0.288
1328.23	0.3088
1337.61	0.4081
1346.99	0.701
1356.37	0.798
1365.76	0.877
1375.14	0.89
1384.52	0.876
1393.9	0.855
1403.29	0.848
1412.67	0.861
1422.05	0.874
1431.43	0.829
1440.81	0.6629
1450.2	0.492
1459.58	0.39
1468.96	0.4211
1478.34	0.489
1487.73	0.658
1497.11	0.781
1506.49	0.865
1515.87	0.896
1525.26	0.909
1534.64	0.913
1544.02	0.913
1553.4	0.911
1562.79	0.9
1572.17	0.893
1581.55	0.887
1590.93	0.884
1600.31	0.89
1609.7	0.899
1619.08	0.911
1628.46	0.916
1637.84	0.912
1647.23	0.915
1656.61	0.918
1665.99	0.928
1675.37	0.934
1684.76	0.935
1694.14	0.934
1703.52	0.924
1712.9	0.916
1722.29	0.912
1731.67	0.909
1741.05	0.884
1750.43	0.883
1759.81	0.873
1769.2	0.899
1778.58	0.916
1787.96	0.927
1797.34	0.93
1806.73	0.932
1816.11	0.937
1825.49	0.951
1834.87	0.947
1844.26	0.944
1853.64	0.943
1863.02	0.934
1872.4	0.938
1881.79	0.941
1891.17	0.951
1900.55	0.96
1909.93	0.96
1919.31	0.957
1928.7	0.957
1938.08	0.956
1947.46	0.957
1956.84	0.954
1966.23	0.946
1975.61	0.943
1984.99	0.944
1994.37	0.948
2003.76	0.954
2013.14	0.953
2022.52	0.946
2031.9	0.9221
2041.29	0.876
2050.67	0.8041
2060.05	0.816
2069.43	0.8299
2078.81	0.921
2088.2	0.934
2097.58	0.934
2106.96	0.9191
2116.34	0.835
2125.73	0.823
2135.11	0.7973
2144.49	0.8667
2153.87	0.954
2163.26	0.956
2172.64	0.954
2182.02	0.95
2191.4	0.937
2200.79	0.935
2210.17	0.937
2219.55	0.954
2228.93	0.957
2238.31	0.9511
2247.7	0.937
2257.08	0.937
2266.46	0.947
2275.84	0.959
2285.23	0.963
2294.61	0.962
2303.99	0.9481
2313.37	0.937
2322.76	0.938
2332.14	0.957
2341.52	0.969
2350.9	0.966
2360.28	0.962
2369.67	0.953
2379.05	0.9411
2388.43	0.934
2397.81	0.935
2407.2	0.9479
2416.58	0.9629
2425.96	0.97
2435.34	0.97
2444.73	0.969
2454.11	0.966
2463.49	0.966
2472.87	0.9699
2482.26	0.976
2491.64	0.978
2501.02	0.9809
2510.4	0.981
2519.78	0.982
2529.17	0.982
2538.55	0.981
2547.93	0.981
2557.31	0.978
2566.7	0.976
2576.08	0.975
2585.46	0.9661
2594.84	0.959
2604.23	0.9619
2613.61	0.962
2622.99	0.957
2632.37	0.957
2641.76	0.959
2651.14	0.966
2660.52	0.969
2669.9	0.965
2679.28	0.969
2688.67	0.973
2698.05	0.966
2707.43	0.972
2716.81	0.9671
2726.2	0.9561
2735.58	0.9481
2744.96	0.9321
2754.34	0.9029
2763.73	0.9023
2773.11	0.8779
2782.49	0.8752
2791.87	0.889
2801.26	0.8296
2810.64	0.831
2820.02	0.6307
2829.4	0.4508
2838.78	0.3471
2848.17	0.355
2857.55	0.4852
2866.93	0.5455
2876.31	0.4609
2885.7	0.3408
2895.08	0.2442
2904.46	0.1853
2913.84	0.1801
2923.23	0.1663
2932.61	0.1297
2941.99	0.1001
2951.37	0.1001
2960.76	0.0687
2970.14	0.1808
2979.52	0.2768
2988.9	0.3718
2998.28	0.4716
3007.67	0.3309
3017.05	0.271
3026.43	0.2978
3035.81	0.4098
3045.2	0.5792
3054.58	0.7502
3063.96	0.8537
3073.34	0.8856
3082.73	0.9057
3092.11	0.9188
3101.49	0.9309
3110.87	0.9409
3120.26	0.9479
3129.64	0.9509
3139.02	0.953
3148.4	0.9569
3157.78	0.9669
3167.17	0.9779
3176.55	0.981
3185.93	0.981
3195.31	0.9819
3204.7	0.986
3214.08	0.985
3223.46	0.985
3232.84	0.985
3242.23	0.986
3251.61	0.988
3260.99	0.989
3270.37	0.988
3279.76	0.988
3289.14	0.988
3298.52	0.986
3307.9	0.986
3317.28	0.986
3326.67	0.9918
3336.05	0.991
3345.43	0.989
3354.81	0.988
3364.2	0.986
3373.58	0.988
3382.96	0.9881
3392.34	0.986
3401.73	0.9908
3411.11	0.992
3420.49	0.991
3429.87	0.991
3439.25	0.9919
3448.64	0.992
3458.02	0.995
3467.4	0.997
3476.78	0.997
3486.17	0.997
3495.55	0.997
3504.93	0.997
3514.31	0.9979
3523.7	0.998
3533.08	0.998
3542.46	0.998
3551.84	0.998
3561.23	0.998
3570.61	1
3579.99	1
3589.37	1
3598.75	1
3608.14	1.0001
3617.52	0.998
3626.9	0.998
3636.28	0.998
3645.67	0.997
3655.05	0.998
3664.43	1
3673.81	0.9982
3683.2	0.9941
3692.58	0.989
3701.96	0.9982
3711.34	0.998
3720.73	0.998
3730.11	1.0009
3739.49	1.002
3748.87	1.002
3758.25	1
3767.64	0.997
3777.02	0.995
3786.4	0.997
3795.78	0.998
