Infrared Spectrum: Ether, chloromethyl methyl
Formula: C2 H5 Cl O
CAS: 107-30-2
State: SOLUTION (10% CCl4 FOR 3800-1340, 10% CS2 FOR 1340-450 CM^-^1)
Class: COBLENTZ III
Instrument: DOW KBr FOREPRISM-GRATING
Instrument parameters: BLAZED AT 3.5, 12.0, 20.0 MICRON AND CHANGED AT 5.0, 7.5, 14.9 MICRON
Sampling: TRANSMISSION
Path length: 0.011 CM, 0.010 CM
Resolution: 2
Origin: DOW CHEMICAL COMPANY
1/CM	TRANSMITTANCE
3794	0.917
3785	0.9176
3776	0.9185
3767	0.9192
3758	0.9198
3749	0.9156
3740	0.912
3731	0.9136
3722	0.9159
3713	0.9175
3704	0.9199
3695	0.9197
3686	0.9195
3677	0.919
3668	0.9179
3659	0.9168
3650	0.9156
3641	0.9153
3632	0.9161
3623	0.9161
3614	0.9163
3605	0.9165
3596	0.9171
3587	0.9181
3578	0.9192
3569	0.9192
3560	0.9202
3551	0.9215
3542	0.9212
3533	0.9211
3524	0.9205
3515	0.9208
3506	0.9201
3497	0.919
3488	0.918
3479	0.9168
3470	0.9157
3461	0.9149
3452	0.9143
3443	0.9136
3434	0.9128
3425	0.9111
3416	0.9111
3407	0.9116
3398	0.9126
3389	0.9149
3380	0.9149
3371	0.9131
3362	0.9111
3353	0.9094
3344	0.9094
3335	0.9077
3326	0.907
3317	0.9067
3308	0.9081
3299	0.9076
3290	0.9075
3281	0.907
3272	0.9074
3263	0.9066
3254	0.9059
3245	0.9047
3236	0.9042
3227	0.9031
3218	0.9022
3209	0.9007
3200	0.8986
3191	0.8977
3182	0.8945
3173	0.8924
3164	0.89
3155	0.8863
3146	0.8839
3137	0.8832
3128	0.8808
3119	0.8777
3110	0.874
3101	0.8695
3092	0.8676
3083	0.8584
3074	0.8552
3065	0.8481
3056	0.8392
3047	0.8226
3038	0.7813
3029	0.6511
3020	0.5146
3011	0.4426
3002	0.5707
2993	0.6681
2984	0.6648
2975	0.5584
2966	0.3775
2957	0.213
2948	0.2482
2939	0.2585
2930	0.3517
2921	0.4806
2912	0.4714
2903	0.4605
2894	0.4705
2885	0.4999
2876	0.6124
2867	0.7226
2858	0.7728
2849	0.7719
2840	0.4034
2831	0.4824
2822	0.7537
2813	0.8212
2804	0.8514
2795	0.865
2786	0.8724
2777	0.8783
2768	0.8823
2759	0.8849
2750	0.886
2741	0.8876
2732	0.8898
2723	0.8933
2714	0.8962
2705	0.8979
2696	0.8979
2687	0.8974
2678	0.8969
2669	0.8968
2660	0.8967
2651	0.8959
2642	0.8952
2633	0.8945
2624	0.8909
2615	0.8904
2606	0.8922
2597	0.8928
2588	0.8927
2579	0.8925
2570	0.8943
2561	0.8991
2552	0.9016
2543	0.9018
2534	0.9018
2525	0.9021
2516	0.9025
2507	0.9024
2498	0.9023
2489	0.9025
2480	0.9034
2471	0.903
2462	0.8997
2453	0.897
2444	0.8984
2435	0.8999
2426	0.9009
2417	0.9016
2408	0.902
2399	0.8949
2390	0.8866
2381	0.8851
2372	0.8903
2363	0.8929
2354	0.8929
2345	0.9007
2336	0.9011
2327	0.8962
2318	0.8751
2309	0.8553
2300	0.8782
2291	0.8932
2282	0.8963
2273	0.9001
2264	0.9016
2255	0.8995
2246	0.8883
2237	0.8812
2228	0.8869
2219	0.8961
2210	0.9007
2201	0.8978
2192	0.8855
2183	0.8893
2174	0.9006
2165	0.9025
2156	0.9034
2147	0.9041
2138	0.9041
2129	0.8977
2120	0.8223
2111	0.7949
2102	0.8767
2093	0.8914
2084	0.8961
2075	0.8981
2066	0.8974
2057	0.8898
2048	0.8362
2039	0.7878
2030	0.8245
2021	0.8625
2012	0.885
2003	0.8966
1994	0.8913
1985	0.8854
1976	0.8868
1967	0.8889
1958	0.8999
1949	0.8918
1940	0.8919
1931	0.8914
1922	0.8868
1913	0.8858
1904	0.8879
1895	0.8888
1886	0.888
1877	0.8876
1868	0.8853
1859	0.877
1850	0.8643
1841	0.8601
1832	0.8702
1823	0.878
1814	0.8832
1805	0.8835
1796	0.8807
1787	0.8759
1778	0.8677
1769	0.8712
1760	0.8753
1751	0.8756
1742	0.8762
1733	0.8772
1724	0.8783
1715	0.8794
1706	0.8805
1697	0.8816
1688	0.883
1679	0.8827
1670	0.8807
1661	0.8741
1652	0.8565
1643	0.859
1634	0.8597
1625	0.8563
1616	0.8531
1607	0.8215
1598	0.7932
1589	0.7517
1580	0.7375
1571	0.7189
1562	0.6875
1553	0.6624
1544	0.6885
1535	0.768
1526	0.7691
1517	0.7718
1508	0.7763
1499	0.7703
1490	0.758
1481	0.6995
1472	0.423
1463	0.3081
1454	0.4287
1445	0.5121
1436	0.6495
1427	0.7926
1418	0.8206
1409	0.827
1400	0.8265
1391	0.8221
1382	0.815
1373	0.8055
1364	0.8032
1355	0.7962
1346	0.7804
1337	0.7117
1328	0.472
1319	0.0731
1310	0.4913
1301	0.6378
1292	0.654
1283	0.5112
1274	0.5055
1265	0.6664
1256	0.7059
1247	0.7183
1238	0.7094
1229	0.6739
1220	0.5889
1211	0.4335
1202	0.1187
1193	0.0059
1184	0.1046
1175	0.4369
1166	0.4974
1157	0.4051
1148	0.4329
1139	0.2129
1130	0.0213
1121	0.0049
1112	0.0511
1103	0.2842
1094	0.4987
1085	0.6605
1076	0.7248
1067	0.7624
1058	0.79
1049	0.786
1040	0.7943
1031	0.8117
1022	0.8073
1013	0.7708
1004	0.6509
995	0.2256
986	0.6754
977	0.7832
968	0.7975
959	0.7929
950	0.7521
941	0.6737
932	0.3056
923	0.031
914	0.3588
905	0.6738
896	0.7673
887	0.8011
878	0.8062
869	0.8006
860	0.8043
851	0.8389
842	0.8595
833	0.8655
824	0.8671
815	0.8608
806	0.8525
797	0.8522
788	0.8606
779	0.8638
770	0.864
761	0.8607
752	0.8584
743	0.8546
734	0.8483
725	0.8384
716	0.8101
707	0.747
698	0.6663
689	0.5898
680	0.3935
671	0.0603
662	0.0074
653	0.0042
644	0.0343
635	0.1857
626	0.4172
617	0.6038
608	0.6963
599	0.7539
590	0.7943
581	0.8281
572	0.8554
563	0.8745
554	0.8821
545	0.8884
536	0.8916
527	0.8924
518	0.8869
509	0.8808
500	0.8717
491	0.8615
482	0.8487
473	0.8164
464	0.7801
455	0.7162
