Infrared Spectrum: CHLOROMETHYL METHYL ETHER
Formula: C2 H5 Cl O
CAS: 107-30-2
State: GAS (100 mmHg DILUTED TO A TOTAL PRESSURE OF 600 mmHg WITH NITROGEN)
Class: COBLENTZ
Instrument: DOW KBr FOREPRISM
Instrument parameters: GRATING BLAZED AT 3.5, 12.0, 20.0 MICRONS AND CHANGED AT 5.0, 7.5, 14.9 MICRONS
Sampling: TRANSMISSION
Path length: 5 CM
Resolution: 4
Origin: DOW CHEMICAL COMPANY
1/CM	TRANSMITTANCE
383.197	0.991
391.979	0.991
400.761	0.986
409.544	0.977
418.326	0.964
427.108	0.937
435.89	0.896
444.672	0.802
453.455	0.772
462.237	0.776
471.019	0.87
479.801	0.935
488.584	0.946
497.366	0.951
506.148	0.951
514.93	0.953
523.712	0.953
532.495	0.953
541.277	0.955
550.059	0.964
558.841	0.95
567.623	0.937
576.406	0.925
585.188	0.912
593.97	0.903
602.752	0.901
611.534	0.889
620.317	0.859
629.099	0.824
637.881	0.737
646.663	0.564
655.445	0.215
664.228	0.009
673.01	0.006
681.792	0.006
690.574	0.049
699.357	0.502
708.139	0.798
716.921	0.943
725.703	0.983
734.485	0.994
743.268	0.994
752.05	0.998
760.832	0.995
769.614	0.988
778.396	0.975
787.179	0.954
795.961	0.944
804.743	0.944
813.525	0.959
822.307	0.977
831.09	0.982
839.872	0.982
848.654	0.979
857.436	0.976
866.219	0.975
875.001	0.959
883.783	0.918
892.565	0.83
901.347	0.628
910.13	0.363
918.912	0.183
927.694	0.125
936.476	0.16
945.258	0.354
954.041	0.603
962.823	0.795
971.605	0.796
980.387	0.527
989.169	0.44
997.952	0.473
1006.73	0.397
1015.52	0.678
1024.3	0.761
1033.08	0.806
1041.86	0.828
1050.64	0.837
1059.43	0.838
1068.21	0.812
1076.99	0.708
1085.77	0.629
1094.56	0.454
1103.34	0.135
1112.12	0.008
1120.9	0.006
1129.68	0.006
1138.47	0.011
1147.25	0.099
1156.03	0.122
1164.81	0.223
1173.6	0.233
1182.38	0.013
1191.16	0.015
1199.94	0.011
1208.72	0.02
1217.51	0.327
1226.29	0.589
1235.07	0.66
1243.85	0.672
1252.64	0.643
1261.42	0.585
1270.2	0.553
1278.98	0.54
1287.76	0.6
1296.55	0.613
1305.33	0.486
1314.11	0.254
1322.89	0.2181
1331.68	0.279
1340.46	0.603
1349.24	0.751
1358.02	0.835
1366.8	0.881
1375.59	0.89
1384.37	0.87
1393.15	0.85
1401.93	0.846
1410.72	0.861
1419.5	0.874
1428.28	0.834
1437.06	0.711
1445.84	0.49
1454.63	0.401
1463.41	0.392
1472.19	0.372
1480.97	0.58
1489.76	0.705
1498.54	0.819
1507.32	0.872
1516.1	0.897
1524.88	0.91
1533.67	0.911
1542.45	0.912
1551.23	0.908
1560.01	0.901
1568.8	0.893
1577.58	0.888
1586.36	0.883
1595.14	0.888
1603.92	0.897
1612.71	0.904
1621.49	0.915
1630.27	0.915
1639.05	0.912
1647.84	0.918
1656.62	0.917
1665.4	0.926
1674.18	0.932
1682.96	0.932
1691.75	0.93
1700.53	0.925
1709.31	0.917
1718.09	0.911
1726.88	0.907
1735.66	0.89
1744.44	0.875
1753.22	0.877
1762	0.886
1770.79	0.91
1779.57	0.919
1788.35	0.926
1797.13	0.93
1805.91	0.932
1814.7	0.94
1823.48	0.95
1832.26	0.946
1841.04	0.944
1849.83	0.941
1858.61	0.935
1867.39	0.936
1876.17	0.94
1884.95	0.943
1893.74	0.959
1902.52	0.959
1911.3	0.957
1920.08	0.955
1928.87	0.955
1937.65	0.955
1946.43	0.957
1955.21	0.954
1963.99	0.946
1972.78	0.944
1981.56	0.944
1990.34	0.946
1999.12	0.953
2007.91	0.954
2016.69	0.945
2025.47	0.9289
2034.25	0.8953
2043.03	0.832
2051.82	0.8141
2060.6	0.8104
2069.38	0.8451
2078.16	0.9311
2086.95	0.937
2095.73	0.935
2104.51	0.914
2113.29	0.8584
2122.07	0.8257
2130.86	0.8366
2139.64	0.8769
2148.42	0.951
2157.2	0.955
2165.99	0.955
2174.77	0.9518
2183.55	0.9404
2192.33	0.939
2201.11	0.9371
2209.9	0.9442
2218.68	0.955
2227.46	0.958
2236.24	0.9467
2245.03	0.9353
2253.81	0.9397
2262.59	0.945
2271.37	0.959
2280.15	0.961
2288.94	0.9613
2297.72	0.9573
2306.5	0.9348
2315.28	0.9327
2324.07	0.955
2332.85	0.9669
2341.63	0.9706
2350.41	0.9653
2359.19	0.9583
2367.98	0.9488
2376.76	0.935
2385.54	0.9367
2394.32	0.935
2403.11	0.9518
2411.89	0.9603
2420.67	0.9688
2429.45	0.97
2438.23	0.969
2447.02	0.968
2455.8	0.966
2464.58	0.966
2473.36	0.9746
2482.15	0.977
2490.93	0.979
2499.71	0.98
2508.49	0.98
2517.27	0.9828
2526.06	0.983
2534.84	0.982
2543.62	0.98
2552.4	0.979
2561.18	0.977
2569.97	0.9751
2578.75	0.9681
2587.53	0.962
2596.31	0.961
2605.1	0.962
2613.88	0.961
2622.66	0.958
2631.44	0.9589
2640.22	0.961
2649.01	0.9659
2657.79	0.968
2666.57	0.968
2675.35	0.969
2684.14	0.975
2692.92	0.969
2701.7	0.969
2710.48	0.969
2719.26	0.9611
2728.05	0.953
2736.83	0.943
2745.61	0.926
2754.39	0.914
2763.18	0.901
2771.96	0.8698
2780.74	0.8781
2789.52	0.8919
2798.3	0.8526
2807.09	0.8197
2815.87	0.6901
2824.65	0.501
2833.43	0.3598
2842.22	0.3571
2851	0.3906
2859.78	0.5357
2868.56	0.5265
2877.34	0.4506
2886.13	0.3152
2894.91	0.2209
2903.69	0.1857
2912.47	0.18
2921.26	0.1676
2930.04	0.1218
2938.82	0.1207
2947.6	0.1034
2956.38	0.0846
2965.17	0.1572
2973.95	0.2482
2982.73	0.3619
2991.51	0.4695
3000.3	0.4243
3009.08	0.2815
3017.86	0.2507
3026.64	0.289
3035.42	0.476
3044.21	0.6323
3052.99	0.7799
3061.77	0.8504
3070.55	0.8827
3079.34	0.9023
3088.12	0.9157
3096.9	0.9269
3105.68	0.94
3114.46	0.947
3123.25	0.9502
3132.03	0.953
3140.81	0.9543
3149.59	0.9608
3158.38	0.9698
3167.16	0.979
3175.94	0.98
3184.72	0.982
3193.5	0.9833
3202.29	0.987
3211.07	0.987
3219.85	0.9867
3228.63	0.987
3237.42	0.987
3246.2	0.987
3254.98	0.99
3263.76	0.988
3272.54	0.988
3281.33	0.988
3290.11	0.987
3298.89	0.987
3307.67	0.987
3316.45	0.988
3325.24	0.9918
3334.02	0.993
3342.8	0.99
3351.58	0.988
3360.37	0.988
3369.15	0.9888
3377.93	0.991
3386.71	0.9892
3395.49	0.988
3404.28	0.9919
3413.06	0.993
3421.84	0.9921
3430.62	0.993
3439.41	0.9935
3448.19	0.994
3456.97	0.994
3465.75	0.994
3474.53	0.996
3483.32	0.9975
3492.1	0.998
3500.88	0.998
3509.66	0.998
3518.45	0.999
3527.23	1
3536.01	1
3544.79	1
3553.57	1.001
3562.36	0.9989
3571.14	0.9991
3579.92	1.0006
3588.7	1.001
3597.49	1.001
3606.27	1
3615.05	0.998
3623.83	0.998
3632.61	0.998
3641.4	0.997
3650.18	0.9988
3658.96	0.998
3667.74	1.0006
3676.53	1
3685.31	0.998
3694.09	0.998
3702.87	0.998
3711.65	0.998
3720.44	1
3729.22	1
3738	1.0007
3746.78	1.001
3755.57	1
3764.35	0.998
3773.13	0.997
3781.91	0.9964
3790.69	0.998
