Infrared Spectrum: CHLOROMETHYL METHYL ETHER
Formula: C2 H5 Cl O
CAS: 107-30-2
State: GAS (100 mmHg, N2 ADDED, TOTAL PRESSURE 600 mmHg)
Class: COBLENTZ
Instrument: DOW KBr FOREPRISM-GRATING
Instrument parameters: BLAZED AT 3.5, 12.0, 20.0 MICRON, CHANGED AT 5.0, 7.5, 14.9 MICRON
Sampling: TRANSMISSION
Path length: 5 CM
Resolution: 2
Origin: DOW CHEMICAL COMPANY
1/CM	TRANSMITTANCE
383.838	0.996
392.676	0.994
401.515	0.99
410.353	0.978
419.192	0.964
428.03	0.938
436.868	0.894
445.707	0.7961
454.545	0.77
463.383	0.774
472.222	0.894
481.06	0.936
489.899	0.948
498.737	0.954
507.575	0.956
516.414	0.958
525.252	0.956
534.09	0.958
542.929	0.962
551.767	0.958
560.606	0.952
569.444	0.938
578.282	0.924
587.121	0.912
595.959	0.908
604.797	0.902
613.636	0.882
622.474	0.8401
631.313	0.7781
640.151	0.6461
648.989	0.329
657.828	0.0193
666.666	0.009
675.504	0.009
684.343	0.011
693.181	0.3247
702.02	0.702
710.858	0.8919
719.696	0.974
728.535	0.994
737.373	0.998
746.212	1.001
755.05	1.001
763.888	0.996
772.727	0.982
781.565	0.966
790.403	0.948
799.242	0.946
808.08	0.954
816.919	0.976
825.757	0.982
834.595	0.984
843.434	0.984
852.272	0.982
861.11	0.98
869.949	0.972
878.787	0.946
887.626	0.894
896.464	0.7441
905.302	0.4811
914.141	0.227
922.979	0.151
931.817	0.1411
940.656	0.2689
949.494	0.4927
958.333	0.6959
967.171	0.82
976.009	0.6942
984.848	0.4171
993.686	0.2533
1002.52	0.341
1011.36	0.6175
1020.2	0.728
1029.04	0.794
1037.88	0.824
1046.72	0.836
1055.55	0.842
1064.39	0.822
1073.23	0.7441
1082.07	0.646
1090.91	0.473
1099.75	0.2052
1108.59	0.011
1117.42	0.007
1126.26	0.009
1135.1	0.009
1143.94	0.057
1152.78	0.119
1161.62	0.227
1170.45	0.1791
1179.29	0.011
1188.13	0.017
1196.97	0.017
1205.81	0.033
1214.65	0.3666
1223.48	0.6019
1232.32	0.664
1241.16	0.674
1250	0.634
1258.84	0.576
1267.68	0.552
1276.51	0.5658
1285.35	0.602
1294.19	0.614
1303.03	0.4452
1311.87	0.263
1320.71	0.3909
1329.54	0.2428
1338.38	0.6317
1347.22	0.75
1356.06	0.836
1364.9	0.884
1373.74	0.894
1382.57	0.872
1391.41	0.852
1400.25	0.852
1409.09	0.86
1417.93	0.878
1426.77	0.8381
1435.61	0.708
1444.44	0.495
1453.28	0.3971
1462.12	0.401
1470.96	0.421
1479.8	0.5497
1488.64	0.6979
1497.47	0.798
1506.31	0.87
1515.15	0.894
1523.99	0.91
1532.83	0.914
1541.67	0.916
1550.5	0.912
1559.34	0.906
1568.18	0.896
1577.02	0.892
1585.86	0.888
1594.7	0.89
1603.53	0.896
1612.37	0.904
1621.21	0.914
1630.05	0.916
1638.89	0.914
1647.73	0.916
1656.56	0.916
1665.4	0.928
1674.24	0.934
1683.08	0.936
1691.92	0.936
1700.76	0.928
1709.59	0.918
1718.43	0.914
1727.27	0.91
1736.11	0.892
1744.95	0.874
1753.79	0.876
1762.63	0.888
1771.46	0.906
1780.3	0.922
1789.14	0.928
1797.98	0.932
1806.82	0.934
1815.66	0.94
1824.49	0.95
1833.33	0.946
1842.17	0.944
1851.01	0.944
1859.85	0.934
1868.69	0.934
1877.52	0.942
1886.36	0.948
1895.2	0.962
1904.04	0.962
1912.88	0.958
1921.72	0.958
1930.55	0.958
1939.39	0.958
1948.23	0.958
1957.07	0.956
1965.91	0.946
1974.75	0.946
1983.58	0.946
1992.42	0.948
2001.26	0.955
2010.1	0.954
2018.94	0.9441
2027.78	0.9242
2036.61	0.8883
2045.45	0.8114
2054.29	0.8138
2063.13	0.8126
2071.97	0.8452
2080.81	0.9318
2089.65	0.936
2098.48	0.934
2107.32	0.9121
2116.16	0.8385
2125	0.822
2133.84	0.8267
2142.68	0.8686
2151.51	0.9514
2160.35	0.956
2169.19	0.956
2178.03	0.9514
2186.87	0.9428
2195.71	0.936
2204.54	0.9436
2213.38	0.9379
2222.22	0.956
2231.06	0.9575
2239.9	0.9465
2248.74	0.938
2257.57	0.9415
2266.41	0.9465
2275.25	0.9574
2284.09	0.9604
2292.93	0.9606
2301.77	0.9549
2310.6	0.9359
2319.44	0.934
2328.28	0.9567
2337.12	0.97
2345.96	0.972
2354.8	0.9617
2363.63	0.9555
2372.47	0.9471
2381.31	0.9368
2390.15	0.934
2398.99	0.9372
2407.83	0.9465
2416.67	0.9583
2425.5	0.9683
2434.34	0.972
2443.18	0.9719
2452.02	0.97
2460.86	0.968
2469.7	0.97
2478.53	0.976
2487.37	0.98
2496.21	0.982
2505.05	0.982
2513.89	0.982
2522.73	0.984
2531.56	0.984
2540.4	0.982
2549.24	0.982
2558.08	0.982
2566.92	0.98
2575.76	0.9772
2584.59	0.9702
2593.43	0.9632
2602.27	0.9598
2611.11	0.964
2619.95	0.9603
2628.79	0.958
2637.62	0.9597
2646.46	0.9634
2655.3	0.9697
2664.14	0.97
2672.98	0.97
2681.82	0.9752
2690.65	0.976
2699.49	0.968
2708.33	0.9716
2717.17	0.968
2726.01	0.9569
2734.85	0.9529
2743.69	0.936
2752.52	0.9226
2761.36	0.9076
2770.2	0.8956
2779.04	0.852
2787.88	0.888
2796.72	0.8858
2805.55	0.8349
2814.39	0.7458
2823.23	0.5555
2832.07	0.4098
2840.91	0.3427
2849.75	0.444
2858.58	0.5168
2867.42	0.537
2876.26	0.4784
2885.1	0.337
2893.94	0.2178
2902.78	0.1866
2911.61	0.179
2920.45	0.1678
2929.29	0.1455
2938.13	0.099
2946.97	0.103
2955.81	0.0955
2964.64	0.1495
2973.48	0.2573
2982.32	0.3293
2991.16	0.4601
3000	0.4094
3008.84	0.267
3017.67	0.2553
3026.51	0.3001
3035.35	0.4746
3044.19	0.6347
3053.03	0.7464
3061.87	0.8406
3070.71	0.8757
3079.54	0.8996
3088.38	0.9138
3097.22	0.9276
3106.06	0.936
3114.9	0.9488
3123.74	0.9537
3132.57	0.956
3141.41	0.9557
3150.25	0.9607
3159.09	0.97
3167.93	0.98
3176.77	0.982
3185.6	0.982
3194.44	0.982
3203.28	0.9866
3212.12	0.988
3220.96	0.988
3229.8	0.988
3238.63	0.988
3247.47	0.99
3256.31	0.992
3265.15	0.99
3273.99	0.99
3282.83	0.99
3291.66	0.9896
3300.5	0.988
3309.34	0.9884
3318.18	0.99
3327.02	0.9923
3335.86	0.994
3344.69	0.992
3353.53	0.99
3362.37	0.99
3371.21	0.9913
3380.05	0.992
3388.89	0.99
3397.73	0.9902
3406.56	0.9932
3415.4	0.994
3424.24	0.994
3433.08	0.994
3441.92	0.994
3450.76	0.996
3459.59	0.9971
3468.43	0.998
3477.27	0.998
3486.11	0.998
3494.95	0.998
3503.79	0.998
3512.62	0.998
3521.46	0.998
3530.3	1
3539.14	1
3547.98	1
3556.82	1
3565.65	1
3574.49	1
3583.33	1
3592.17	1.001
3601.01	1.0006
3609.85	1
3618.68	1
3627.52	1
3636.36	1
3645.2	0.998
3654.04	0.9987
3662.88	1
3671.71	1
3680.55	1
3689.39	0.998
3698.23	0.992
3707.07	0.9986
3715.91	0.9985
3724.75	0.998
3733.58	1
3742.42	1.001
3751.26	1.0003
3760.1	1
3768.94	0.9971
3777.78	0.996
3786.61	0.9946
3795.45	0.9984
