Infrared Spectrum: Glycidaldehyde
Formula: C3 H4 O2
CAS: 765-34-4
State: LIQUID (NEAT)
Class: COBLENTZ III
Instrument: CARY 90 (GRATING)
Instrument parameters: ORDER CHANGES: 3000, 2000, 1200 CM^-^1
Path length: 0.0028 CM
Resolution: 2
Origin: WESTERN REGIONAL RES. USDA
1/CM	TRANSMITTANCE
446	0.8108
455	0.8074
464	0.7996
473	0.7862
482	0.761
491	0.7048
500	0.6265
509	0.5413
518	0.6433
527	0.7537
536	0.8145
545	0.8401
554	0.8545
563	0.8622
572	0.8665
581	0.8686
590	0.8696
599	0.8746
608	0.8792
617	0.882
626	0.8855
635	0.8867
644	0.8835
653	0.8753
662	0.8677
671	0.8516
680	0.8219
689	0.7779
698	0.6698
707	0.3515
716	0.617
725	0.7587
734	0.8023
743	0.8001
752	0.7531
761	0.6233
770	0.5699
779	0.6971
788	0.6841
797	0.5116
806	0.3336
815	0.1793
824	0.0417
833	0.016
842	0.0081
851	0.008
860	0.0089
869	0.0107
878	0.1118
887	0.1956
896	0.2449
905	0.4524
914	0.5093
923	0.5158
932	0.4997
941	0.4483
950	0.4873
959	0.4905
968	0.4336
977	0.343
986	0.084
995	0.0259
1004	0.276
1013	0.446
1022	0.4913
1031	0.5348
1040	0.5374
1049	0.5246
1058	0.5051
1067	0.4247
1076	0.4794
1085	0.5245
1094	0.5455
1103	0.549
1112	0.5264
1121	0.3253
1130	0.1689
1139	0.2077
1148	0.3191
1157	0.1358
1166	0.0318
1175	0.4591
1184	0.5833
1193	0.6303
1202	0.5495
1211	0.4014
1220	0.1776
1229	0.0953
1238	0.2894
1247	0.5189
1256	0.6169
1265	0.6802
1274	0.7084
1283	0.712
1292	0.7031
1301	0.6428
1310	0.4643
1319	0.3345
1328	0.4957
1337	0.6314
1346	0.6942
1355	0.6908
1364	0.643
1373	0.4164
1382	0.4621
1391	0.3449
1400	0.207
1409	0.4058
1418	0.6411
1427	0.6921
1436	0.7023
1445	0.7053
1454	0.6901
1463	0.6258
1472	0.513
1481	0.549
1490	0.7113
1499	0.7702
1508	0.8031
1517	0.8171
1526	0.8213
1535	0.8236
1544	0.8294
1553	0.8324
1562	0.8314
1571	0.8239
1580	0.8182
1589	0.8114
1598	0.8029
1607	0.7897
1616	0.77
1625	0.7407
1634	0.692
1643	0.6412
1652	0.5769
1661	0.5602
1670	0.5004
1679	0.3721
1688	0.2375
1697	0.225
1706	0.0663
1715	0.01
1724	0.0068
1733	0.008
1742	0.0095
1751	0.0336
1760	0.2175
1769	0.3615
1778	0.4786
1787	0.5661
1796	0.6321
1805	0.6839
1814	0.7109
1823	0.7332
1832	0.7574
1841	0.7755
1850	0.7881
1859	0.7957
1868	0.7975
1877	0.8083
1886	0.8269
1895	0.8413
1904	0.8514
1913	0.8536
1922	0.8564
1931	0.8571
1940	0.8566
1949	0.8551
1958	0.8512
1967	0.8407
1976	0.824
1985	0.8123
1994	0.7926
2003	0.7763
2012	0.7693
2021	0.7613
2030	0.7465
2039	0.7298
2048	0.7201
2057	0.7361
2066	0.7627
2075	0.7863
2084	0.8111
2093	0.8272
2102	0.8375
2111	0.8406
2120	0.8366
2129	0.8257
2138	0.8163
2147	0.8131
2156	0.8123
2165	0.8125
2174	0.8145
2183	0.8165
2192	0.8188
2201	0.8215
2210	0.8262
2219	0.8287
2228	0.8297
2237	0.8271
2246	0.8178
2255	0.8008
2264	0.778
2273	0.7705
2282	0.7778
2291	0.7909
2300	0.8009
2309	0.8096
2318	0.8182
2327	0.8266
2336	0.835
2345	0.8443
2354	0.8577
2363	0.8656
2372	0.8681
2381	0.8583
2390	0.8552
2399	0.8568
2408	0.863
2417	0.8678
2426	0.8694
2435	0.867
2444	0.8593
2453	0.8516
2462	0.8499
2471	0.8468
2480	0.8456
2489	0.8501
2498	0.8579
2507	0.8618
2516	0.8627
2525	0.8605
2534	0.8538
2543	0.8469
2552	0.8419
2561	0.8433
2570	0.8441
2579	0.8407
2588	0.8312
2597	0.8161
2606	0.8057
2615	0.8044
2624	0.8088
2633	0.8037
2642	0.7978
2651	0.8086
2660	0.8023
2669	0.7896
2678	0.7687
2687	0.7171
2696	0.6524
2705	0.6211
2714	0.6317
2723	0.6092
2732	0.5665
2741	0.5423
2750	0.5195
2759	0.4409
2768	0.353
2777	0.3352
2786	0.3321
2795	0.3401
2804	0.3229
2813	0.2517
2822	0.1853
2831	0.1087
2840	0.1121
2849	0.1675
2858	0.2443
2867	0.3432
2876	0.4422
2885	0.541
2894	0.6058
2903	0.6234
2912	0.5832
2921	0.5078
2930	0.5568
2939	0.6307
2948	0.6538
2957	0.6556
2966	0.6467
2975	0.627
2984	0.5227
2993	0.3556
3002	0.241
3011	0.3208
3020	0.4181
3029	0.4497
3038	0.4611
3047	0.4874
3056	0.4965
3065	0.5081
3074	0.5212
3083	0.5977
3092	0.65
3101	0.6798
3110	0.6945
3119	0.7032
3128	0.7088
3137	0.7197
3146	0.7426
3155	0.7617
3164	0.7743
3173	0.7861
3182	0.7957
3191	0.8038
3200	0.8113
3209	0.8179
3218	0.8244
3227	0.83
3236	0.8357
3245	0.8406
3254	0.8452
3263	0.8477
3272	0.85
3281	0.8524
3290	0.8548
3299	0.8556
3308	0.8556
3317	0.8546
3326	0.8517
3335	0.8476
3344	0.8428
3353	0.8369
3362	0.8299
3371	0.822
3380	0.8181
3389	0.8128
3398	0.803
3407	0.7918
3416	0.7437
3425	0.6431
3434	0.5426
3443	0.5036
3452	0.5709
3461	0.648
3470	0.7024
3479	0.7423
3488	0.769
3497	0.787
3506	0.7999
3515	0.8137
3524	0.8269
3533	0.8377
3542	0.8464
3551	0.8543
3560	0.8613
3569	0.8681
3578	0.8738
3587	0.8819
3596	0.8886
3605	0.8928
3614	0.8961
3623	0.8975
3632	0.8985
3641	0.8994
3650	0.8999
3659	0.8997
3668	0.8993
3677	0.898
3686	0.8965
3695	0.8947
3704	0.8929
3713	0.891
3722	0.8891
3731	0.8872
3740	0.8866
3749	0.8862
3758	0.8862
3767	0.8865
3776	0.8853
3785	0.8837
3794	0.881
3803	0.8779
3812	0.8736
3821	0.8669
3830	0.8579
3839	0.8472
3848	0.8363
3857	0.8269
3866	0.8192
3875	0.8187
3884	0.8271
3893	0.8356
3902	0.8411
3911	0.8446
3920	0.8482
3929	0.8516
3938	0.8547
3947	0.858
3956	0.8616
3965	0.8664
3974	0.872
3983	0.8776
3992	0.8833
