Infrared Spectrum: GLYCIDALDEHYDE
Formula: C3 H4 O2
CAS: 765-34-4
State: SOLUTION (10% CCl4 FOR 4000-1250, 10% CS2 FOR 1270-450 CM^-^1) VS SOLVENT
Class: COBLENTZ III
Instrument: CARY 90 (GRATING)
Instrument parameters: ORDER CHANGES: 3000, 2000, 1200 CM^-^1
Sampling: TRANSMISSION
Path length: 0.010 CM, AND 0.011 CM
Resolution: 2
Origin: WESTERN REGIONAL RES. USDA
1/CM	TRANSMITTANCE
3842	0.9243
3833	0.931
3824	0.9348
3815	0.9385
3806	0.9418
3797	0.9444
3788	0.9463
3779	0.9455
3770	0.9443
3761	0.9433
3752	0.9423
3743	0.9417
3734	0.9425
3725	0.9445
3716	0.9464
3707	0.9484
3698	0.9443
3689	0.9393
3680	0.9384
3671	0.9397
3662	0.9418
3653	0.9424
3644	0.9423
3635	0.9386
3626	0.9348
3617	0.9307
3608	0.9266
3599	0.9232
3590	0.9198
3581	0.9163
3572	0.9128
3563	0.9095
3554	0.9063
3545	0.9025
3536	0.8981
3527	0.8963
3518	0.8943
3509	0.891
3500	0.885
3491	0.8733
3482	0.8539
3473	0.8296
3464	0.7996
3455	0.7661
3446	0.775
3437	0.8332
3428	0.8651
3419	0.8778
3410	0.887
3401	0.8915
3392	0.8959
3383	0.8995
3374	0.9023
3365	0.905
3356	0.9075
3347	0.9103
3338	0.9128
3329	0.915
3320	0.917
3311	0.9181
3302	0.9184
3293	0.9187
3284	0.9191
3275	0.9198
3266	0.9205
3257	0.9204
3248	0.9203
3239	0.9201
3230	0.9201
3221	0.9201
3212	0.9196
3203	0.919
3194	0.9191
3185	0.9192
3176	0.9186
3167	0.9161
3158	0.9123
3149	0.9071
3140	0.9035
3131	0.902
3122	0.9015
3113	0.9003
3104	0.8977
3095	0.8918
3086	0.8734
3077	0.8082
3068	0.7251
3059	0.6911
3050	0.7478
3041	0.7984
3032	0.7689
3023	0.7576
3014	0.7511
3005	0.6174
2996	0.5008
2987	0.6675
2978	0.8105
2969	0.839
2960	0.845
2951	0.8449
2942	0.84
2933	0.826
2924	0.7501
2915	0.6849
2906	0.8164
2897	0.8403
2888	0.8425
2879	0.8328
2870	0.8074
2861	0.7694
2852	0.6981
2843	0.6087
2834	0.5646
2825	0.4368
2816	0.3377
2807	0.4548
2798	0.5921
2789	0.6199
2780	0.6164
2771	0.6114
2762	0.6545
2753	0.7112
2744	0.7681
2735	0.7976
2726	0.8122
2717	0.8403
2708	0.8202
2699	0.7893
2690	0.8072
2681	0.8513
2672	0.8847
2663	0.895
2654	0.9004
2645	0.9015
2636	0.9014
2627	0.9008
2618	0.9004
2609	0.9035
2600	0.9106
2591	0.9186
2582	0.9247
2573	0.9261
2564	0.9247
2555	0.9243
2546	0.9282
2537	0.9282
2528	0.9267
2519	0.9297
2510	0.9313
2501	0.9318
2492	0.9306
2483	0.9278
2474	0.9239
2465	0.9245
2456	0.9254
2447	0.9253
2438	0.9275
2429	0.9296
2420	0.9315
2411	0.9328
2402	0.9342
2393	0.933
2384	0.9259
2375	0.9252
2366	0.9305
2357	0.9235
2348	0.9218
2339	0.9217
2330	0.9221
2321	0.9207
2312	0.9185
2303	0.916
2294	0.914
2285	0.9144
2276	0.9121
2267	0.9064
2258	0.9059
2249	0.9131
2240	0.9198
2231	0.9218
2222	0.924
2213	0.9252
2204	0.9228
2195	0.9192
2186	0.9173
2177	0.9204
2168	0.9206
2159	0.9178
2150	0.9152
2141	0.9149
2132	0.9151
2123	0.9159
2114	0.9165
2105	0.9163
2096	0.9149
2087	0.9118
2078	0.9032
2069	0.8904
2060	0.8725
2051	0.8663
2042	0.8767
2033	0.8867
2024	0.8968
2015	0.8965
2006	0.8831
1997	0.8656
1988	0.8775
1979	0.8787
1970	0.8892
1961	0.8984
1952	0.9042
1943	0.9053
1934	0.9028
1925	0.8986
1916	0.9021
1907	0.9035
1898	0.9024
1889	0.9008
1880	0.897
1871	0.89
1862	0.8838
1853	0.8843
1844	0.8871
1835	0.887
1826	0.878
1817	0.8686
1808	0.8585
1799	0.8424
1790	0.8214
1781	0.785
1772	0.7015
1763	0.6177
1754	0.3721
1745	0.0101
1736	0.0031
1727	0.0206
1718	0.2252
1709	0.5252
1700	0.6117
1691	0.644
1682	0.7697
1673	0.8111
1664	0.8288
1655	0.8167
1646	0.8268
1637	0.8506
1628	0.8617
1619	0.869
1610	0.8684
1601	0.8666
1592	0.8817
1583	0.892
1574	0.8938
1565	0.8973
1556	0.9187
1547	0.9317
1538	0.9218
1529	0.9108
1520	0.9042
1511	0.8999
1502	0.8941
1493	0.8782
1484	0.8358
1475	0.7775
1466	0.8256
1457	0.8475
1448	0.8478
1439	0.8402
1430	0.8415
1421	0.8454
1412	0.8028
1403	0.6133
1394	0.7386
1385	0.8015
1376	0.8021
1367	0.843
1358	0.858
1349	0.8607
1340	0.8468
1331	0.8203
1322	0.7555
1313	0.6732
1304	0.8171
1295	0.8443
1286	0.8516
1277	0.8531
1268	0.847
1259	0.8318
1250	0.8131
1241	0.7667
1232	0.7142
1223	0.4302
1214	0.5632
1205	0.7628
1196	0.8001
1187	0.7974
1178	0.7621
1169	0.6922
1160	0.2543
1151	0.457
1142	0.6724
1133	0.5825
1124	0.5599
1115	0.7441
1106	0.7719
1097	0.8004
1088	0.8015
1079	0.7761
1070	0.7335
1061	0.7843
1052	0.8039
1043	0.8089
1034	0.8115
1025	0.8106
1016	0.8024
1007	0.774
998	0.6614
989	0.3043
980	0.6755
971	0.7607
962	0.8154
953	0.8253
944	0.818
935	0.8167
926	0.8181
917	0.8051
908	0.7726
899	0.6868
890	0.6671
881	0.6054
872	0.212
863	0.1402
854	0.0842
845	0.0901
836	0.3528
827	0.2908
818	0.6145
809	0.7317
800	0.7978
791	0.8486
782	0.8621
773	0.851
764	0.8432
755	0.8693
746	0.8875
737	0.8917
728	0.8767
719	0.8715
710	0.8321
701	0.8612
692	0.8783
683	0.8825
674	0.8854
665	0.8828
656	0.862
647	0.8718
638	0.8821
629	0.8834
620	0.8847
611	0.8903
602	0.8898
593	0.8884
584	0.886
575	0.8814
566	0.8753
557	0.8687
548	0.8607
539	0.8487
530	0.8318
521	0.8051
512	0.7431
503	0.7498
494	0.7693
485	0.7774
