Infrared Spectrum: 1,2-Epoxycyclopentane
Formula: C 5 H 8 O
CAS: 285-67-6
State: gas
Instrument: HP-GC/MS/IRD
Origin: NIST Mass Spectrometry Data Center
1/CM	ABSORBANCE
550	0.000225
562	0.0002322
574	0.0001782
586	9.54e-05
598	0.0001908
610	0.0003096
622	0.0006012
634	0.0007596
646	0.0010512
658	0.0009756
670	0.0007254
682	0.0004338
694	0.0002232
706	0.0001278
718	8.64e-05
730	2.16e-05
742	2.88e-05
754	0.000108
766	0.0001512
778	0.0002952
790	0.000648
802	0.0015264
814	0.004149
826	0.0070038
838	0.0112698
850	0.0060876
862	0.0059724
874	0.002106
886	0.000936
898	0.0016704
910	0.002862
922	0.0038646
934	0.003618
946	0.0023292
958	0.0014598
970	0.0004932
982	0.0003006
994	0.0007056
1006	0.0009558
1018	0.0011538
1030	0.0008964
1042	0.0004356
1054	0.000369
1066	0.0005022
1078	0.0006444
1090	0.0010998
1102	0.0004986
1114	0.0003312
1126	0.000144
1138	8.1e-05
1150	5.94e-05
1162	0.0001206
1174	0.0002052
1186	0.000594
1198	0.000756
1210	0.0016596
1222	0.001071
1234	0.0010602
1246	0.0007506
1258	0.0007344
1270	0.00081
1282	0.0016056
1294	0.0021006
1306	0.0018846
1318	0.0011718
1330	0.0002394
1342	0.0001026
1354	0.0002214
1366	0.0007326
1378	0.001494
1390	0.0020934
1402	0.0019242
1414	0.0017244
1426	0.0016146
1438	0.0019368
1450	0.0019854
1462	0.0018144
1474	0.001278
1486	0.0007308
1498	0.0003168
1510	0.000162
1522	0.0001224
1534	9.54e-05
1546	0.000117
1558	0.0001584
1570	0.0001098
1582	0.0001242
1594	7.92e-05
1606	5.94e-05
1618	9.36e-05
1630	6.66e-05
1642	8.82e-05
1654	0.0001116
1666	0.0001134
1678	0.0001188
1690	5.76e-05
1702	8.64e-05
1714	4.5e-05
1726	7.92e-05
1738	7.74e-05
1750	7.2e-05
1762	8.64e-05
1774	0.0001026
1786	6.3e-05
1798	6.48e-05
1810	4.86e-05
1822	2.34e-05
1834	3.24e-05
1846	5.76e-05
1858	5.04e-05
1870	4.32e-05
1882	4.68e-05
1894	8.28e-05
1906	9.54e-05
1918	7.02e-05
1930	8.28e-05
1942	7.38e-05
1954	5.04e-05
1966	5.58e-05
1978	7.74e-05
1990	0.0001116
2002	0.0001332
2014	0.0001404
2026	0.0001044
2038	0.0001116
2050	0.000117
2062	0.0001134
2074	0.0001458
2086	0.0001458
2098	0.0001548
2110	0.0001656
2122	0.0001224
2134	0.0001098
2146	0.0001152
2158	0.0001278
2170	0.0001422
2182	0.0001638
2194	0.0001764
2206	0.000189
2218	0.0002124
2230	0.0002106
2242	0.000189
2254	0.000162
2266	0.0001206
2278	0.0001062
2290	0.0001368
2302	0.0001224
2314	0.0001692
2326	0.0001728
2338	0.0001818
2350	0.000126
2362	0.0001404
2374	0.0001152
2386	7.38e-05
2398	5.4e-05
2410	6.48e-05
2422	6.3e-05
2434	4.5e-05
2446	5.94e-05
2458	7.02e-05
2470	6.84e-05
2482	4.86e-05
2494	6.48e-05
2506	7.56e-05
2518	4.86e-05
2530	5.4e-05
2542	2.34e-05
2554	8.1e-05
2566	8.82e-05
2578	8.46e-05
2590	7.74e-05
2602	8.64e-05
2614	0.0001008
2626	7.02e-05
2638	7.02e-05
2650	9.72e-05
2662	0.0001152
2674	0.0001224
2686	0.0001044
2698	0.0001206
2710	0.0001368
2722	0.000135
2734	0.0001512
2746	0.0001728
2758	0.0001944
2770	0.000207
2782	0.000234
2794	0.0002916
2806	0.0003816
2818	0.000621
2830	0.001215
2842	0.0026118
2854	0.0040806
2866	0.0049014
2878	0.0047196
2890	0.0049572
2902	0.0067068
2914	0.0092376
2926	0.0121158
2938	0.0142146
2950	0.0172926
2962	0.0172818
2974	0.0152208
2986	0.0147654
2998	0.0072954
3010	0.0082674
3022	0.0100566
3034	0.01251
3046	0.008523
3058	0.0053046
3070	0.0015894
3082	0.0004806
3094	0.0002664
3106	0.0001746
3118	0.0002016
3130	0.0001764
3142	0.0001206
3154	8.28e-05
3166	6.84e-05
3178	8.28e-05
3190	7.74e-05
3202	6.66e-05
3214	2.34e-05
3226	3.06e-05
3238	6.12e-05
3250	8.46e-05
3262	9.36e-05
3274	0.0001296
3286	8.64e-05
3298	9e-05
3310	6.66e-05
3322	7.74e-05
3334	7.02e-05
3346	0.0001332
3358	0.0001224
3370	7.56e-05
3382	5.22e-05
3394	5.94e-05
3406	2.34e-05
3418	5.76e-05
3430	7.2e-05
3442	5.94e-05
3454	2.88e-05
3466	3.6e-06
3478	2.16e-05
3490	5.22e-05
3502	4.68e-05
3514	3.6e-05
3526	3.24e-05
3538	6.12e-05
3550	4.68e-05
3562	5.22e-05
3574	9.18e-05
3586	0.0001116
3598	0.0001044
3610	0.0001062
3622	9.36e-05
3634	6.84e-05
3646	7.74e-05
3658	0.0001044
3670	5.22e-05
3682	3.96e-05
3694	5.94e-05
3706	8.82e-05
3718	0.0001026
3730	6.84e-05
3742	0.0001044
3754	6.84e-05
3766	7.56e-05
3778	8.82e-05
3790	0.0001674
3802	0.0002232
3814	0.000225
3826	0.000387
3838	0.0004302
