Infrared Spectrum: Chloromethyl thiocyanate
Formula: C 2 H 2 Cl N S
CAS: 3268-79-9
State: gas
Origin: Sadtler Research Labs Under US-EPA Contract
1/CM	ABSORBANCE
450	0.00656198
462	0.00789098
474	0.00348865
486	0.00132901
498	0.00215964
510	0.0015782
522	0.00348865
534	0.00107982
546	0.00365477
558	0.00348865
570	0.00340558
582	0.00664504
594	0.0076418
606	0.0152005
618	0.0136223
630	0.0107151
642	0.0181908
654	0.0358002
666	0.03688
678	0.0378767
690	0.0387074
702	0.0401194
714	0.0906217
726	0.326022
738	0.74765
750	0.79591
762	0.295123
774	0.0974329
786	0.0207657
798	0.00955225
810	0.00639585
822	0.00631279
834	0.00772486
846	0.017111
858	0.0439403
870	0.0572304
882	0.0376275
894	0.0155328
906	0.0076418
918	0.00481765
930	0.00240883
942	0.000747567
954	0.000581441
966	0.000498378
978	0.000249189
990	0.00116288
1002	0.00199351
1014	0.00149513
1026	0.00116288
1038	0.000996756
1050	0
1062	0.000415315
1074	0.000581441
1086	0.000664504
1098	0.00083063
1110	0.00149513
1122	0.0015782
1134	0.00282414
1146	0.00697729
1158	0.0102167
1170	0.00664504
1182	0.00373784
1194	0.0076418
1206	0.0112135
1218	0.0432758
1230	0.398038
1242	0.447045
1254	0.171774
1266	0.00938612
1278	0.0038209
1290	0.00390396
1302	0.00390396
1314	0.00365477
1326	0.00323946
1338	0.00232576
1350	0.00299027
1362	0.00315639
1374	0.00407009
1386	0.00963531
1398	0.0228423
1410	0.0446048
1422	0.0247528
1434	0.0116288
1446	0.00531603
1458	0.00498378
1470	0.00373784
1482	0.00431928
1494	0.00365477
1506	0.00431928
1518	0.00332252
1530	0.00132901
1542	0.00207658
1554	0.00191045
1566	0.00124595
1578	0.00249189
1590	0.00107982
1602	0.00107982
1614	0.000913693
1626	0.000664504
1638	0.00107982
1650	0
1662	0.00107982
1674	0.000415315
1686	0.00182739
1698	0.00149513
1710	0.00191045
1722	0.00207658
1734	0.00265802
1746	0.00199351
1758	0.00232576
1770	0.00249189
1782	0.00207658
1794	0.00215964
1806	0.00182739
1818	0.00166126
1830	0.000747567
1842	0.000581441
1854	0.000913693
1866	0.000747567
1878	0.000996756
1890	0.000913693
1902	0.000996756
1914	0.000747567
1926	0.000913693
1938	0.000913693
1950	0.000913693
1962	0.00116288
1974	0.0015782
1986	0.00174432
1998	0.00182739
2010	0.00265802
2022	0.00323946
2034	0.00274108
2046	0.00207658
2058	0.00249189
2070	0.00307333
2082	0.00265802
2094	0.0022427
2106	0.00240883
2118	0.00265802
2130	0.00315639
2142	0.0060636
2154	0.0213472
2166	0.0518313
2178	0.0510837
2190	0.0142868
2202	0.00299027
2214	0.00332252
2226	0.0053991
2238	0.00980143
2250	0.0156158
2262	0.0166126
2274	0.0164465
2286	0.018523
2298	0.0114627
2310	0.00722648
2322	0.00622973
2334	0.00589747
2346	0.00564828
2358	0.0044854
2370	0.00514991
2382	0.00440234
2394	0.00240883
2406	0.000996756
2418	0.000498378
2430	0.000996756
2442	0.00116288
2454	0.00166126
2466	0.0015782
2478	0.00166126
2490	0.000913693
2502	0.000747567
2514	0.000747567
2526	0.00141207
2538	0.0029072
2550	0.00481765
2562	0.00415315
2574	0.0022427
2586	0.00166126
2598	0.00149513
2610	0.00191045
2622	0.00257495
2634	0.00299027
2646	0.00440234
2658	0.00456846
2670	0.0022427
2682	0.000332252
2694	0.000581441
2706	0.000332252
2718	0.000249189
2730	0
2742	0.000415315
2754	0.000415315
2766	0.000415315
2778	0.000747567
2790	0.00107982
2802	0.00215964
2814	0.00299027
2826	0.00315639
2838	0.0044854
2850	0.0060636
2862	0.00647891
2874	0.00431928
2886	0.00257495
2898	0.00207658
2910	0.00282414
2922	0.00431928
2934	0.00639585
2946	0.00938612
2958	0.0206827
2970	0.0375445
2982	0.0365477
2994	0.0168618
3006	0.00631279
3018	0.00664504
3030	0.00963531
3042	0.00921999
3054	0.00423621
3066	0.00207658
3078	0.0015782
3090	0.00182739
3102	0.00174432
3114	0.000996756
3126	0.000498378
3138	0.000249189
3150	0.000249189
3162	0.000332252
3174	0.000332252
3186	0.000249189
3198	0.000913693
3210	0.000498378
3222	0.000249189
3234	8.3063e-05
3246	0.000664504
3258	0.000332252
3270	0.000913693
3282	8.3063e-05
3294	0.000498378
3306	0.000581441
3318	0.000332252
3330	0.000996756
3342	0.00083063
3354	0.000747567
3366	0.000996756
3378	0.000996756
3390	0.000415315
3402	0.000913693
3414	0.00149513
3426	0.00132901
3438	0.00083063
3450	0.000166126
3462	0.00083063
3474	0.00132901
3486	0.00132901
3498	0.00215964
3510	0.00257495
3522	0.00265802
3534	0.00232576
3546	0.00265802
3558	0.00124595
3570	0.00207658
3582	0.000913693
3594	0.00132901
3606	0.000913693
3618	0.00182739
3630	0.00174432
3642	0.000249189
3654	0.00116288
3666	0.00116288
3678	0.00191045
3690	0.00191045
3702	0.0022427
3714	0.00207658
3726	0.00240883
3738	0.00207658
3750	0.00182739
3762	0.00116288
3774	0.00207658
3786	0.00166126
3798	0.00141207
3810	0.00174432
3822	0.00257495
3834	0.00141207
3846	0.00240883
3858	0.00174432
3870	0.00174432
3882	0.00174432
3894	0.00357171
3906	0.00282414
3918	0.00257495
3930	0.000415315
3942	0.00083063
3954	0.000747567
3966	0.00107982
