Infrared Spectrum: Ethene, fluoro-
Formula: C 2 H 3 F
CAS: 75-02-5
State: gas
Origin: Sadtler Research Labs Under US-EPA Contract
1/CM	ABSORBANCE
450	0
462	0.0210585
474	0.0256071
486	0.0175207
498	0.019079
510	0.0228274
522	0.0139828
534	0.0104871
546	0.0137301
558	0.00838128
570	0.00863398
582	0.0102344
594	0.00859187
606	0.0100238
618	0.0113716
630	0.00951844
642	0.0124245
654	0.0124666
666	0.0143198
678	0.0173943
690	0.0154569
702	0.0174786
714	0.0398848
726	0.0197108
738	0.0203425
750	0.020511
762	0.0192475
774	0.0226168
786	0.0243436
798	0.0326828
810	0.0481397
822	0.06048
834	0.0745471
846	0.0837286
858	0.105082
870	0.139576
882	0.144503
894	0.184557
906	0.237371
918	0.229159
930	0.319078
942	0.240193
954	0.221241
966	0.14105
978	0.0956477
990	0.0643127
1002	0.0433384
1014	0.0289765
1026	0.0184051
1038	0.0170995
1050	0.0176891
1062	0.0164256
1074	0.0209743
1086	0.0217745
1098	0.0281342
1110	0.0613224
1122	0.160255
1134	0.352309
1146	0.305222
1158	0.286185
1170	0.420117
1182	0.242973
1194	0.0666291
1206	0.0269549
1218	0.0261125
1230	0.0236698
1242	0.0187421
1254	0.020511
1266	0.0203425
1278	0.0240909
1290	0.0295661
1302	0.0250596
1314	0.0240067
1326	0.0284711
1338	0.0209743
1350	0.0271655
1362	0.0285974
1374	0.0224484
1386	0.0291871
1398	0.0332724
1410	0.0283869
1422	0.0275445
1434	0.024133
1446	0.0247648
1458	0.0131405
1470	0.0192054
1482	0.022322
1494	0.0196265
1506	0.0114979
1518	0.0138144
1530	0.0161729
1542	0.0160045
1554	0.0332724
1566	0.0342411
1578	0.0289765
1590	0.0480555
1602	0.0582899
1614	0.11439
1626	0.2439
1638	0.349234
1650	0.305222
1662	0.236066
1674	0.404871
1686	0.121929
1698	0.0204267
1710	0.0213112
1722	0.0171416
1734	0.0104871
1746	0.0152885
1758	0.0167204
1770	0.0164256
1782	0.0177734
1794	0.0164677
1806	0.0229538
1818	0.0221114
1830	0.0204267
1842	0.0245963
1854	0.0260283
1866	0.0252702
1878	0.0232065
1890	0.0166783
1902	0.0154991
1914	0.0128878
1926	0.0130142
1938	0.012972
1950	0.0126772
1962	0.0124245
1974	0.0120876
1986	0.0118349
1998	0.0112452
2010	0.0113295
2022	0.0103187
2034	0.0118349
2046	0.0131826
2058	0.0161729
2070	0.0159623
2082	0.0157518
2094	0.0173522
2106	0.013688
2118	0.0106977
2130	0.00947632
2142	0.0086761
2154	0.0084234
2166	0.00796011
2178	0.00770741
2190	0.00728624
2202	0.00711777
2214	0.00762318
2226	0.00724412
2238	0.00741259
2250	0.00762318
2262	0.00800223
2274	0.00943421
2286	0.0106977
2298	0.00956056
2310	0.0114558
2322	0.0125509
2334	0.0106977
2346	0.00981326
2358	0.00960268
2370	0.00964479
2382	0.00800223
2394	0.00753894
2406	0.00762318
2418	0.00753894
2430	0.00812858
2442	0.00850763
2454	0.0081707
2466	0.00821282
2478	0.00871822
2490	0.00821282
2502	0.00779164
2514	0.00804435
2526	0.0084234
2538	0.00930786
2550	0.0104029
2562	0.0106556
2574	0.0101081
2586	0.0104871
2598	0.00989749
2610	0.0081707
2622	0.00787588
2634	0.00753894
2646	0.00741259
2658	0.00737047
2670	0.00770741
2682	0.00741259
2694	0.00766529
2706	0.00737047
2718	0.00774953
2730	0.00779164
2742	0.00796011
2754	0.00796011
2766	0.0086761
2778	0.00909727
2790	0.00972903
2802	0.0089288
2814	0.00934997
2826	0.00956056
2838	0.00779164
2850	0.00796011
2862	0.00804435
2874	0.00762318
2886	0.00770741
2898	0.00774953
2910	0.0081707
2922	0.0081707
2934	0.00812858
2946	0.00825493
2958	0.00905515
2970	0.00956056
2982	0.00947632
2994	0.00956056
3006	0.0101923
3018	0.0114137
3030	0.0114558
3042	0.0128457
3054	0.014404
3066	0.0181103
3078	0.0216903
3090	0.0190369
3102	0.0218166
3114	0.0260704
3126	0.0247227
3138	0.0192054
3150	0.0193317
3162	0.0185315
3174	0.0136459
3186	0.0115401
3198	0.0107398
3210	0.00939209
3222	0.00876034
3234	0.00829705
3246	0.00783376
3258	0.007918
3270	0.00871822
3282	0.00884457
3294	0.00909727
3306	0.00838128
3318	0.00934997
3330	0.00783376
3342	0.00766529
3354	0.00779164
3366	0.0084234
3378	0.00880245
3390	0.0086761
3402	0.00804435
3414	0.0086761
3426	0.00880245
3438	0.00854975
3450	0.00905515
3462	0.00918151
3474	0.00913939
3486	0.00850763
3498	0.00888669
3510	0.00934997
3522	0.0084234
3534	0.00905515
3546	0.00884457
3558	0.00918151
3570	0.00934997
3582	0.00977114
3594	0.00871822
3606	0.00985538
3618	0.00913939
3630	0.00909727
3642	0.00901304
3654	0.0086761
3666	0.0105714
3678	0.00880245
3690	0.0084234
3702	0.00960268
3714	0.00922362
3726	0.00960268
3738	0.00939209
3750	0.00871822
3762	0.00993961
3774	0.0089288
3786	0.00863398
3798	0.00825493
3810	0.00985538
3822	0.00960268
3834	0.00905515
3846	0.00989749
3858	0.00913939
3870	0.00838128
3882	0.00930786
3894	0.00951844
3906	0.00905515
3918	0.00880245
3930	0.00812858
3942	0.00800223
3954	0.00871822
3966	0.00943421
