Infrared Spectrum: 3-Butyn-2-ol, 2-methyl-
Formula: C5 H8 O
CAS: 115-19-5
State: LIQUID (NEAT)
Class: COBLENTZ III
Instrument: PERKIN-ELMER 221 (GRATING)
Instrument parameters: FILTER AT 980 CM^-^1. GRATING 4000-1428 CM^-^1, NaCl PRISM 1428-650 CM^-^1
Path length: CAPILLARY
Resolution: 2
Origin: SOUTHERN RESEARCH INSTITUTE
1/CM	TRANSMITTANCE
638.744	0.3831
647.769	0.3896
656.794	0.4235
665.818	0.4679
674.843	0.5339
683.868	0.5948
692.893	0.6091
701.917	0.6003
710.942	0.7102
719.967	0.7626
728.992	0.8043
738.016	0.8329
747.041	0.8545
756.066	0.8774
765.091	0.8982
774.115	0.9156
783.14	0.9273
792.165	0.9364
801.19	0.945
810.215	0.9536
819.239	0.9564
828.264	0.9565
837.289	0.9549
846.314	0.9508
855.338	0.9366
864.363	0.8734
873.388	0.6902
882.413	0.3757
891.437	0.6535
900.462	0.9209
909.487	0.9442
918.512	0.9341
927.536	0.9155
936.561	0.8216
945.586	0.5678
954.611	0.2268
963.635	0.6306
972.66	0.9417
981.685	0.9376
990.71	0.9358
999.735	0.9275
1008.76	0.9373
1017.78	0.9395
1026.81	0.9398
1035.83	0.9396
1044.86	0.9364
1053.88	0.9326
1062.91	0.9284
1071.93	0.9123
1080.96	0.8848
1089.98	0.841
1099.01	0.7839
1108.03	0.6658
1117.06	0.4893
1126.08	0.3754
1135.11	0.3102
1144.13	0.2772
1153.16	0.2365
1162.18	0.2054
1171.21	0.2645
1180.23	0.5191
1189.25	0.6415
1198.28	0.58
1207.3	0.3637
1216.33	0.5014
1225.35	0.6793
1234.38	0.772
1243.4	0.7884
1252.43	0.7896
1261.45	0.7964
1270.48	0.7979
1279.5	0.7963
1288.53	0.7786
1297.55	0.7627
1306.58	0.7469
1315.6	0.6836
1324.63	0.6363
1333.65	0.6159
1342.68	0.5905
1351.7	0.4067
1360.73	0.3697
1369.75	0.3996
1378.77	0.5835
1387.8	0.6897
1396.82	0.7107
1405.85	0.7446
1414.87	0.7988
1423.9	0.8027
1432.92	0.7994
1441.95	0.7512
1450.97	0.6689
1460	0.6878
1469.02	0.7916
1478.05	0.8808
1487.07	0.9242
1496.1	0.9383
1505.12	0.9477
1514.15	0.9605
1523.17	0.9621
1532.2	0.9625
1541.22	0.9623
1550.25	0.962
1559.27	0.9619
1568.29	0.9614
1577.32	0.9607
1586.34	0.9605
1595.37	0.9603
1604.39	0.9603
1613.42	0.9606
1622.44	0.9609
1631.47	0.9605
1640.49	0.9601
1649.52	0.9592
1658.54	0.9582
1667.57	0.9571
1676.59	0.9552
1685.62	0.9514
1694.64	0.928
1703.67	0.903
1712.69	0.9286
1721.72	0.9643
1730.74	0.9651
1739.77	0.9657
1748.79	0.9661
1757.81	0.9662
1766.84	0.9665
1775.86	0.9669
1784.89	0.9672
1793.91	0.9676
1802.94	0.9678
1811.96	0.9674
1820.99	0.9652
1830.01	0.962
1839.04	0.9595
1848.06	0.9606
1857.09	0.9654
1866.11	0.9704
1875.14	0.9719
1884.16	0.9721
1893.19	0.9722
1902.21	0.9723
1911.24	0.9722
1920.26	0.9715
1929.29	0.9707
1938.31	0.9698
1947.33	0.9697
1956.36	0.9698
1965.38	0.9703
1974.41	0.9707
1983.43	0.9698
1992.46	0.9462
2001.48	0.9686
2010.51	0.9666
2019.53	0.9638
2028.56	0.9605
2037.58	0.9572
2046.61	0.9545
2055.63	0.9523
2064.66	0.9497
2073.68	0.9466
2082.71	0.9414
2091.73	0.9362
2100.76	0.9332
2109.78	0.9322
2118.81	0.9338
2127.83	0.9471
2136.85	0.9574
2145.88	0.9613
2154.9	0.9626
2163.93	0.964
2172.95	0.9645
2181.98	0.9646
2191	0.9646
2200.03	0.9642
2209.05	0.9639
2218.08	0.9627
2227.1	0.9614
2236.13	0.9581
2245.15	0.9537
2254.18	0.9491
2263.2	0.946
2272.23	0.9452
2281.25	0.9453
2290.28	0.9458
2299.3	0.9462
2308.33	0.9459
2317.35	0.944
2326.37	0.9442
2335.4	0.9448
2344.42	0.9458
2353.45	0.9468
2362.47	0.9477
2371.5	0.95
2380.52	0.9527
2389.55	0.9521
2398.57	0.9513
2407.6	0.9504
2416.62	0.9499
2425.65	0.9493
2434.67	0.9483
2443.7	0.9447
2452.72	0.9416
2461.75	0.9391
2470.77	0.9399
2479.8	0.9437
2488.82	0.94
2497.85	0.9293
2506.87	0.928
2515.89	0.9281
2524.92	0.9285
2533.94	0.9289
2542.97	0.9292
2551.99	0.9298
2561.02	0.9306
2570.04	0.9309
2579.07	0.9312
2588.09	0.9318
2597.12	0.9332
2606.14	0.9345
2615.17	0.9355
2624.19	0.9358
2633.22	0.936
2642.24	0.9355
2651.27	0.9336
2660.29	0.9318
2669.32	0.9299
2678.34	0.9282
2687.37	0.9247
2696.39	0.9202
2705.41	0.9138
2714.44	0.9068
2723.46	0.8985
2732.49	0.8922
2741.51	0.89
2750.54	0.8884
2759.56	0.8867
2768.59	0.885
2777.61	0.8837
2786.64	0.8824
2795.66	0.8822
2804.69	0.8821
2813.71	0.8827
2822.74	0.8823
2831.76	0.8794
2840.79	0.8678
2849.81	0.8515
2858.84	0.833
2867.86	0.8018
2876.89	0.7958
2885.91	0.7949
2894.93	0.796
2903.96	0.7823
2912.98	0.7646
2922.01	0.7232
2931.03	0.6327
2940.06	0.585
2949.08	0.732
2958.11	0.7657
2967.13	0.7121
2976.16	0.4227
2985.18	0.2268
2994.21	0.3518
3003.23	0.6936
3012.26	0.8493
3021.28	0.8818
3030.31	0.8896
3039.33	0.8911
3048.36	0.8908
3057.38	0.8896
3066.41	0.8879
3075.43	0.8839
3084.45	0.8795
3093.48	0.8749
3102.5	0.8697
3111.53	0.8626
3120.55	0.8544
3129.58	0.8447
3138.6	0.8327
3147.63	0.8197
3156.65	0.8063
3165.68	0.7904
3174.7	0.7704
3183.73	0.7417
3192.75	0.7122
3201.78	0.6653
3210.8	0.6274
3219.83	0.5878
3228.85	0.5323
3237.88	0.4679
3246.9	0.421
3255.93	0.3745
3264.95	0.3243
3273.97	0.2644
3283	0.2187
3292.02	0.1761
3301.05	0.1684
3310.07	0.1922
3319.1	0.2496
3328.12	0.2835
3337.15	0.2888
3346.17	0.2839
3355.2	0.2742
3364.22	0.2722
3373.25	0.2728
3382.27	0.2757
3391.3	0.281
3400.32	0.2883
3409.35	0.2971
3418.37	0.3064
3427.4	0.3172
3436.42	0.3338
3445.45	0.3477
3454.47	0.3702
3463.49	0.3987
3472.52	0.425
3481.54	0.4632
3490.57	0.5005
3499.59	0.523
3508.62	0.5503
3517.64	0.5633
3526.67	0.5772
3535.69	0.5918
3544.72	0.6032
3553.74	0.6142
3562.77	0.6335
3571.79	0.6735
3580.82	0.7139
3589.84	0.7419
3598.87	0.7779
3607.89	0.8073
3616.92	0.8233
3625.94	0.8404
3634.97	0.8639
3643.99	0.8784
3653.01	0.8856
3662.04	0.8889
3671.06	0.891
3680.09	0.8921
3689.11	0.8928
3698.14	0.8929
3707.16	0.893
3716.19	0.8932
3725.21	0.8935
3734.24	0.8942
3743.26	0.895
3752.29	0.8954
3761.31	0.8961
3770.34	0.8972
3779.36	0.8981
3788.39	0.8992
3797.41	0.9008
3806.44	0.9019
3815.46	0.9021
3824.49	0.8999
3833.51	0.8981
3842.53	0.8965
3851.56	0.8948
3860.58	0.8943
3869.61	0.8927
3878.63	0.8908
3887.66	0.8905
3896.68	0.8849
3905.71	0.8852
3914.73	0.8862
3923.76	0.8861
3932.78	0.8853
3941.81	0.8839
3950.83	0.8813
3959.86	0.8826
3968.88	0.8854
3977.91	0.8904
3986.93	0.8943
3995.96	0.896
4004.98	0.8955
