Infrared Spectrum: METHYL ISOPROPENYL ETHER
Formula: C4 H8 O
CAS: 116-11-0
State: LIQUID
Class: COBLENTZ
Instrument: Not specified, most likely a prism, grating, or hybrid spectrometer.
Sampling: TRANSMISSION
Path length: 0.003 CM
Resolution: 4
Origin: TENNESSEE EASTMAN COMPANY, RESEARCH LABORATORIES
MICROMETERS	TRANSMITTANCE
2.048	0.848
2.08898	0.849
2.12995	0.851
2.17093	0.851
2.21191	0.836
2.25288	0.81
2.29386	0.796
2.33483	0.825
2.37581	0.836
2.41679	0.848
2.45776	0.849
2.49874	0.844
2.53972	0.849
2.58069	0.866
2.62167	0.868
2.66265	0.882
2.70362	0.885
2.7446	0.883
2.78557	0.878
2.82655	0.875
2.86753	0.877
2.9085	0.878
2.94948	0.88
2.99046	0.882
3.03143	0.882
3.07241	0.882
3.11339	0.877
3.15436	0.861
3.19534	0.8
3.23632	0.735
3.27729	0.771
3.31827	0.257
3.35924	0.168
3.40022	0.126
3.4412	0.441
3.48217	0.459
3.52315	0.535
3.56413	0.759
3.6051	0.849
3.64608	0.87
3.68706	0.88
3.72803	0.911
3.76901	0.912
3.80998	0.899
3.85096	0.921
3.89194	0.902
3.93291	0.902
3.97389	0.919
4.01487	0.933
4.05584	0.923
4.09682	0.909
4.1378	0.921
4.17877	0.931
4.21975	0.941
4.26072	0.952
4.3017	0.952
4.34268	0.95
4.38365	0.95
4.42463	0.95
4.46561	0.948
4.50658	0.88
4.54756	0.916
4.58854	0.909
4.62951	0.918
4.67049	0.936
4.71146	0.875
4.75244	0.894
4.79342	0.928
4.83439	0.95
4.87537	0.95
4.91635	0.919
4.95732	0.825
4.9983	0.936
5.03928	0.959
5.08025	0.964
5.12123	0.964
5.16221	0.952
5.20318	0.894
5.24416	0.805
5.28513	0.907
5.32611	0.921
5.36709	0.918
5.40806	0.962
5.44904	0.967
5.49002	0.967
5.53099	0.964
5.57197	0.964
5.61295	0.957
5.65392	0.938
5.6949	0.865
5.73587	0.873
5.77685	0.839
5.81783	0.737
5.8588	0.716
5.89978	0.627
5.94076	0.511
5.98173	0.209
6.02271	0.015
6.06369	0.032
6.10466	0.162
6.14564	0.249
6.18661	0.203
6.22759	0.114
6.26857	0.11
6.30954	0.259
6.35052	0.518
6.3915	0.653
6.43247	0.762
6.47345	0.79
6.51443	0.791
6.5554	0.79
6.59638	0.783
6.63736	0.769
6.67833	0.742
6.71931	0.622
6.76028	0.423
6.80126	0.179
6.84224	0.117
6.88321	0.037
6.92419	0.098
6.96517	0.233
7.00614	0.329
7.04712	0.515
7.0881	0.532
7.12907	0.343
7.17005	0.252
7.21102	0.423
7.252	0.295
7.29298	0.049
7.33395	0.238
7.37493	0.534
7.41591	0.667
7.45688	0.716
7.49786	0.72
7.53884	0.668
7.57981	0.554
7.62079	0.368
7.66176	0.168
7.70274	0.037
7.74372	0.015
7.78469	0.013
7.82567	0.015
7.86665	0.059
7.90762	0.199
7.9486	0.322
7.98958	0.45
8.03055	0.527
8.07153	0.539
8.1125	0.511
8.15348	0.515
8.19446	0.561
8.23543	0.624
8.27641	0.648
8.31739	0.489
8.35836	0.325
8.39934	0.561
8.44032	0.732
8.48129	0.798
8.52227	0.82
8.56325	0.827
8.60422	0.805
8.6452	0.75
8.68617	0.759
8.72715	0.778
8.76813	0.783
8.8091	0.781
8.85008	0.769
8.89106	0.732
8.93203	0.679
8.97301	0.598
9.01399	0.5
9.05496	0.339
9.09594	0.116
9.13691	0.029
9.17789	0.02
9.21887	0.02
9.25984	0.102
9.30082	0.295
9.3418	0.46
9.38277	0.575
9.42375	0.646
9.46473	0.713
9.5057	0.744
9.54668	0.755
9.58765	0.769
9.62863	0.79
9.66961	0.8
9.71058	0.81
9.75156	0.822
9.79254	0.831
9.83351	0.839
9.87449	0.837
9.91547	0.815
9.95644	0.744
9.99742	0.529
10.0384	0.336
10.0794	0.474
10.1203	0.672
10.1613	0.788
10.2023	0.834
10.2433	0.86
10.2843	0.872
10.3252	0.877
10.3662	0.875
10.4072	0.868
10.4482	0.831
10.4891	0.803
10.5301	0.745
10.5711	0.653
10.6121	0.438
10.653	0.203
10.694	0.133
10.735	0.274
10.776	0.493
10.8169	0.653
10.8579	0.761
10.8989	0.827
10.9399	0.865
10.9809	0.89
11.0218	0.906
11.0628	0.916
11.1038	0.921
11.1448	0.928
11.1857	0.931
11.2267	0.93
11.2677	0.93
11.3087	0.93
11.3496	0.923
11.3906	0.916
11.4316	0.906
11.4726	0.892
11.5135	0.872
11.5545	0.849
11.5955	0.829
11.6365	0.802
11.6775	0.783
11.7184	0.771
11.7594	0.754
11.8004	0.721
11.8414	0.668
11.8823	0.609
11.9233	0.53
11.9643	0.411
12.0053	0.257
12.0462	0.139
12.0872	0.064
12.1282	0.039
12.1692	0.039
12.2101	0.054
12.2511	0.068
12.2921	0.071
12.3331	0.054
12.374	0.039
12.415	0.027
12.456	0.023
12.497	0.02
12.538	0.02
12.5789	0.02
12.6199	0.02
12.6609	0.039
12.7019	0.078
12.7428	0.162
12.7838	0.266
12.8248	0.368
12.8658	0.455
12.9067	0.518
12.9477	0.585
12.9887	0.638
13.0297	0.679
13.0706	0.715
13.1116	0.742
13.1526	0.766
13.1936	0.779
13.2346	0.793
13.2755	0.807
13.3165	0.815
13.3575	0.824
13.3985	0.831
13.4394	0.834
13.4804	0.837
13.5214	0.837
13.5624	0.839
13.6033	0.837
13.6443	0.837
13.6853	0.837
13.7263	0.837
13.7672	0.837
13.8082	0.837
13.8492	0.837
13.8902	0.837
13.9312	0.837
13.9721	0.837
14.0131	0.837
14.0541	0.837
14.0951	0.837
14.136	0.837
14.177	0.836
14.218	0.834
14.259	0.831
14.2999	0.827
14.3409	0.822
14.3819	0.82
14.4229	0.815
14.4638	0.81
14.5048	0.808
14.5458	0.802
14.5868	0.798
14.6277	0.791
14.6687	0.778
14.7097	0.773
14.7507	0.769
14.7917	0.766
14.8326	0.761
14.8736	0.754
14.9146	0.749
14.9556	0.738
14.9965	0.732
15.0375	0.73
15.0785	0.725
15.1195	0.713
15.1604	0.708
15.2014	0.701
15.2424	0.696
15.2834	0.689
15.3243	0.684
15.3653	0.682
15.4063	0.679
15.4473	0.674
15.4883	0.668
15.5292	0.665
15.5702	0.662
15.6112	0.658
15.6522	0.653
15.6931	0.65
15.7341	0.65
15.7751	0.641
15.8161	0.639
15.857	0.638
15.898	0.638
15.939	0.638
15.98	0.638
