Infrared Spectrum: Iodoacetamide
Formula: C 2 H 4 I N O
CAS: 144-48-9
State: gas
Origin: EPA-IR VAPOR PHASE LIBRARY
1/CM	ABSORBANCE
549.9	0.001725
559.547	0.001675
569.193	0.002135
578.84	0.002175
588.486	0.002035
598.133	0.001935
607.779	0.001655
617.426	0.0013915
627.072	0.0013172
636.719	0.0013621
646.365	0.0012912
656.012	0.0013313
665.658	0.0013842
675.305	0.0012908
684.951	0.0011963
694.598	0.0012819
704.245	0.0013434
713.891	0.0013044
723.538	0.0012115
733.184	0.0012973
742.831	0.0012567
752.477	0.0012146
762.124	0.0012736
771.77	0.0012633
781.417	0.0013004
791.063	0.0013097
800.71	0.0012716
810.356	0.0013846
820.003	0.0014571
829.649	0.001575
839.296	0.001605
848.943	0.001675
858.589	0.001635
868.236	0.0013746
877.882	0.0012822
887.529	0.001181
897.175	0.0011114
906.822	0.001129
916.468	0.0010037
926.115	0.0009703
935.761	0.0009548
945.408	0.0008617
955.054	0.0008852
964.701	0.0009085
974.347	0.0007081
983.994	0.0007432
993.64	0.0007408
1003.29	0.0007479
1012.93	0.000796
1022.58	0.0008475
1032.23	0.0008586
1041.87	0.000988
1051.52	0.0010305
1061.17	0.0010718
1070.81	0.0009328
1080.46	0.0008127
1090.11	0.0007419
1099.75	0.0006436
1109.4	0.00057143
1119.05	0.0006292
1128.69	0.00049059
1138.34	0.0008532
1147.99	0.0011224
1157.63	0.002005
1167.28	0.002635
1176.92	0.002745
1186.57	0.001795
1196.22	0.0010117
1205.86	0.0009221
1215.51	0.0011488
1225.16	0.0006948
1234.8	0.0006425
1244.45	0.0006121
1254.1	0.0007287
1263.74	0.0007334
1273.39	0.0008665
1283.04	0.0012545
1292.68	0.001655
1302.33	0.002385
1311.98	0.003825
1321.62	0.006085
1331.27	0.008305
1340.92	0.008085
1350.56	0.005855
1360.21	0.003425
1369.86	0.001955
1379.5	0.0012908
1389.15	0.0011565
1398.79	0.0012088
1408.44	0.0014526
1418.09	0.0014815
1427.73	0.001281
1437.38	0.0008848
1447.03	0.0006566
1456.67	0.00057779
1466.32	0.00056249
1475.97	0.00053494
1485.61	0.0005526
1495.26	0.0004377
1504.91	0.0004314
1514.55	0.00049564
1524.2	0.0005616
1533.85	0.0006679
1543.49	0.0009236
1553.14	0.0014628
1562.79	0.002505
1572.43	0.004595
1582.08	0.006215
1591.73	0.006605
1601.37	0.005155
1611.02	0.003315
1620.67	0.002175
1630.31	0.001575
1639.96	0.0013375
1649.6	0.0012922
1659.25	0.0014391
1668.9	0.001865
1678.54	0.002585
1688.19	0.003685
1697.84	0.005515
1707.48	0.008305
1717.13	0.013085
1726.78	0.018995
1736.42	0.020465
1746.07	0.015325
1755.72	0.008525
1765.36	0.005095
1775.01	0.002905
1784.66	0.001555
1794.3	0.0008578
1803.95	0.0006144
1813.6	0.00055449
1823.24	0.00050008
1832.89	0.00051713
1842.54	0.000490839
1852.18	0.00051991
1861.83	0.00056453
1871.47	0.00052502
1881.12	0.00054106
1890.77	0.00053886
1900.41	0.000493547
1910.06	0.00051368
1919.71	0.000493133
1929.35	0.000492257
1939	0.0004479
1948.65	0.000422
1958.29	0.0004086
1967.94	0.0004718
1977.59	0.0004129
1987.23	0.0004395
1996.88	0.0004618
2006.53	0.0004317
2016.17	0.0004122
2025.82	0.0003916
2035.47	0.0003893
2045.11	0.000384
2054.76	0.0004017
2064.41	0.0004087
2074.05	0.0004058
2083.7	0.0004336
2093.35	0.000374
2102.99	0.0004006
2112.64	0.0004036
2122.28	0.0004506
2131.93	0.0004444
2141.58	0.0004467
2151.22	0.0004333
2160.87	0.0004232
2170.52	0.0004378
2180.16	0.0004326
2189.81	0.0004163
2199.46	0.0004343
2209.1	0.0004311
2218.75	0.0004332
2228.4	0.0004235
2238.04	0.0004279
2247.69	0.0004364
2257.34	0.0004164
2266.98	0.0004233
2276.63	0.000429
2286.28	0.0004402
2295.92	0.0004027
2305.57	0.0004497
2315.22	0.0004353
2324.86	0.0003961
2334.51	0.0003862
2344.16	0.0004334
2353.8	0.00043
2363.45	0.000424
2373.09	0.0004038
2382.74	0.0004401
2392.39	0.000383
2402.03	0.000402
2411.68	0.0004303
2421.33	0.00037
2430.97	0.0004248
2440.62	0.000365
2450.27	0.000384
2459.91	0.0003902
2469.56	0.000367
2479.21	0.000331
2488.85	0.000363
2498.5	0.000385
2508.15	0.0003926
2517.79	0.0003981
2527.44	0.000331
2537.09	0.000357
2546.73	0.00036
2556.38	0.000382
2566.03	0.000329
2575.67	0.0004226
2585.32	0.000378
2594.96	0.000366
2604.61	0.000311
2614.26	0.000279
2623.9	0.0004287
2633.55	0.0003932
2643.2	0.0004064
2652.84	0.000295
2662.49	0.0003896
2672.14	0.000341
2681.78	0.000347
2691.43	0.000365
2701.08	0.000382
2710.72	0.0003943
2720.37	0.000353
2730.02	0.000373
2739.66	0.000312
2749.31	0.000357
2758.96	0.00041
2768.6	0.000341
2778.25	0.000353
2787.9	0.0003974
2797.54	0.000311
2807.19	0.000308
2816.84	0.000437
2826.48	0.00035
2836.13	0.0004296
2845.77	0.000289
2855.42	0.000352
2865.07	0.000371
2874.71	0.000351
2884.36	0.000334
2894.01	0.000352
2903.65	0.000361
2913.3	0.00034
2922.95	0.00051686
2932.59	0.000349
2942.24	0.0003928
2951.89	0.0004249
2961.53	0.0004152
2971.18	0.00058168
2980.83	0.000487501
2990.47	0.00050588
3000.12	0.000353
3009.77	0.000315
3019.41	0.000307
3029.06	0.000312
3038.71	0.000313
3048.35	0.000249
3058	0.000335
3067.64	0.00035
3077.29	0.000283
3086.94	0.000103
3096.58	0.000249
3106.23	0.000247
3115.88	0.000256
3125.52	0.000155
3135.17	0.000189
3144.82	0.000295
3154.46	0.000117
3164.11	0.000241
3173.76	0.00038
3183.4	0.000177
3193.05	0.000168
3202.7	5.6e-05
3212.34	0.00015
3221.99	0.000178
3231.64	0.000127
3241.28	0.000193
3250.93	0.000182
3260.58	0.000183
3270.22	0.000326
3279.87	0.000153
3289.52	0.000316
3299.16	0.000164
3308.81	0.000173
3318.45	0.000167
3328.1	0.000214
3337.75	0.000215
3347.39	0.000242
3357.04	0.000341
3366.69	3.2e-05
3376.33	0.0003948
3385.98	0.0006364
3395.63	0.0010331
3405.27	0.0014256
3414.92	0.001785
3424.57	0.002215
3434.21	0.002015
3443.86	0.001645
3453.51	0.0010798
3463.15	0.0007822
3472.8	0.000918
3482.45	0.0007337
3492.09	0.0010553
3501.74	0.0012901
3511.39	0.001545
3521.03	0.001875
3530.68	0.002665
3540.33	0.003745
3549.97	0.003205
3559.62	0.001855
3569.26	0.0008142
3578.91	0.000351
3588.56	0.000301
3598.2	0.0003868
3607.85	0.000139
3617.5	0.000372
3627.14	0.000337
3636.79	0.000337
3646.44	0.000308
3656.08	0.000319
3665.73	0.000305
3675.38	0.000216
3685.02	0.000207
3694.67	0.000352
3704.32	0.000104
3713.96	0.000184
3723.61	0.000276
3733.26	0.000265
3742.9	0.000278
3752.55	0.0004235
3762.2	0.0004089
3771.84	0.000284
3781.49	0.000291
3791.13	0.000268
3800.78	0.000305
3810.43	0.000301
3820.07	0.000266
3829.72	0.000249
3839.37	0.000213
3849.01	0.000151
3858.66	0.0004015
3868.31	0.000254
3877.95	0.000341
3887.6	0.000272
3897.25	0.000267
3906.89	0.000302
3916.54	0.000385
3926.19	0.000337
3935.83	0.000261
3945.48	0.000359
3955.13	0.000232
3964.77	0.000302
3974.42	0.000383
3984.07	0.000304
3993.71	0.0004337
