Infrared Spectrum: Alpha-IODO ACETAMIDE
Formula: C2 H4 I N O
CAS: 144-48-9
State: SOLID (MINERAL OIL MULL)
Class: COBLENTZ
Instrument: Not specified, most likely a prism, grating, or hybrid spectrometer.
Sampling: TRANSMISSION
Resolution: 4
Origin: DOW CHEMICAL COMPANY
MICROMETERS	TRANSMITTANCE
2.041	0.608
2.08202	0.616
2.12303	0.625
2.16405	0.632
2.20506	0.637
2.24608	0.637
2.28709	0.64
2.32811	0.647
2.36913	0.656
2.41014	0.666
2.45116	0.676
2.49217	0.685
2.53319	0.695
2.5742	0.704
2.61522	0.714
2.65624	0.723
2.69725	0.735
2.73827	0.74
2.77928	0.747
2.8203	0.759
2.86131	0.737
2.90233	0.596
2.94335	0.393
2.98436	0.402
3.02538	0.448
3.06639	0.46
3.10741	0.42
3.14842	0.41
3.18944	0.5
3.23046	0.554
3.27147	0.563
3.31249	0.53
3.3535	0.312
3.39452	0.094
3.43553	0.175
3.47655	0.249
3.51756	0.603
3.55858	0.706
3.5996	0.74
3.64061	0.733
3.68163	0.75
3.72264	0.761
3.76366	0.764
3.80467	0.776
3.84569	0.785
3.88671	0.788
3.92772	0.795
3.96874	0.804
4.00975	0.81
4.05077	0.812
4.09178	0.816
4.1328	0.817
4.17382	0.814
4.21483	0.817
4.25585	0.831
4.29686	0.836
4.33788	0.836
4.37889	0.836
4.41991	0.838
4.46093	0.84
4.50194	0.847
4.54296	0.852
4.58397	0.853
4.62499	0.857
4.666	0.859
4.70702	0.864
4.74804	0.864
4.78905	0.864
4.83007	0.867
4.87108	0.867
4.9121	0.869
4.95311	0.871
4.99413	0.872
5.03515	0.879
5.07616	0.883
5.11718	0.886
5.15819	0.886
5.19921	0.888
5.24022	0.891
5.28124	0.891
5.32226	0.891
5.36327	0.893
5.40429	0.895
5.4453	0.896
5.48632	0.896
5.52733	0.89
5.56835	0.883
5.60937	0.847
5.65038	0.862
5.6914	0.86
5.73241	0.85
5.77343	0.831
5.81444	0.8
5.85546	0.764
5.89648	0.671
5.93749	0.505
5.97851	0.319
6.01952	0.218
6.06054	0.235
6.10155	0.333
6.14257	0.4
6.18359	0.371
6.2246	0.395
6.26562	0.508
6.30663	0.563
6.34765	0.609
6.38866	0.658
6.42968	0.711
6.47069	0.728
6.51171	0.757
6.55273	0.761
6.59374	0.771
6.63476	0.778
6.67577	0.776
6.71679	0.719
6.7578	0.628
6.79882	0.482
6.83984	0.446
6.88085	0.451
6.92187	0.331
6.96288	0.467
7.0039	0.654
7.04491	0.73
7.08593	0.731
7.12695	0.699
7.16796	0.512
7.20898	0.379
7.24999	0.434
7.29101	0.589
7.33202	0.671
7.37304	0.706
7.41406	0.725
7.45507	0.737
7.49609	0.749
7.5371	0.754
7.57812	0.752
7.61913	0.75
7.66015	0.75
7.70117	0.756
7.74218	0.759
7.7832	0.761
7.82421	0.759
7.86523	0.747
7.90624	0.749
7.94726	0.771
7.98828	0.788
8.02929	0.78
8.07031	0.785
8.11132	0.79
8.15234	0.793
8.19335	0.802
8.23437	0.805
8.27539	0.805
8.3164	0.805
8.35742	0.807
8.39843	0.809
8.43945	0.783
8.48046	0.707
8.52148	0.609
8.5625	0.673
8.60351	0.707
8.64453	0.613
8.68554	0.625
8.72656	0.745
8.76757	0.788
8.80859	0.8
8.84961	0.812
8.89062	0.821
8.93164	0.821
8.97265	0.819
9.01367	0.814
9.05468	0.807
9.0957	0.805
9.13672	0.81
9.17773	0.797
9.21875	0.733
9.25976	0.731
9.30078	0.785
9.34179	0.814
9.38281	0.819
9.42382	0.836
9.46484	0.841
9.50586	0.848
9.54687	0.853
9.58789	0.865
9.6289	0.867
9.66992	0.867
9.71093	0.867
9.75195	0.867
9.79297	0.872
9.83398	0.876
9.875	0.879
9.91601	0.886
9.95703	0.888
9.99804	0.891
10.0391	0.895
10.0801	0.896
10.1211	0.896
10.1621	0.9
10.2031	0.9
10.2441	0.9
10.2852	0.898
10.3262	0.9
10.3672	0.9
10.4082	0.9
10.4492	0.9
10.4902	0.903
10.5312	0.903
10.5723	0.905
10.6133	0.905
10.6543	0.907
10.6953	0.907
10.7363	0.907
10.7773	0.907
10.8184	0.912
10.8594	0.914
10.9004	0.915
10.9414	0.914
10.9824	0.915
11.0234	0.919
11.0645	0.924
11.1055	0.912
11.1465	0.883
11.1875	0.829
11.2285	0.817
11.2695	0.888
11.3105	0.907
11.3516	0.915
11.3926	0.922
11.4336	0.926
11.4746	0.932
11.5156	0.931
11.5566	0.929
11.5977	0.924
11.6387	0.92
11.6797	0.905
11.7207	0.886
11.7617	0.878
11.8027	0.881
11.8438	0.896
11.8848	0.896
11.9258	0.888
11.9668	0.881
12.0078	0.874
12.0488	0.865
12.0898	0.848
12.1309	0.829
12.1719	0.809
12.2129	0.797
12.2539	0.788
12.2949	0.78
12.3359	0.778
12.377	0.78
12.418	0.781
12.459	0.786
12.5	0.793
12.541	0.8
12.582	0.809
12.623	0.814
12.6641	0.823
12.7051	0.833
12.7461	0.838
12.7871	0.845
12.8281	0.847
12.8691	0.845
12.9102	0.84
12.9512	0.826
12.9922	0.814
13.0332	0.81
13.0742	0.807
13.1152	0.809
13.1563	0.809
13.1973	0.8
13.2383	0.786
13.2793	0.759
13.3203	0.745
13.3613	0.719
13.4023	0.697
13.4434	0.685
13.4844	0.682
13.5254	0.682
13.5664	0.687
13.6074	0.701
13.6484	0.713
13.6895	0.714
13.7305	0.714
13.7715	0.713
13.8125	0.709
13.8535	0.706
13.8945	0.706
13.9356	0.707
13.9766	0.709
14.0176	0.706
14.0586	0.701
14.0996	0.694
14.1406	0.687
14.1816	0.68
14.2227	0.671
14.2637	0.664
14.3047	0.656
14.3457	0.646
14.3867	0.635
14.4277	0.625
14.4688	0.616
14.5098	0.604
14.5508	0.594
14.5918	0.582
14.6328	0.568
14.6738	0.558
14.7148	0.546
14.7559	0.536
14.7969	0.527
14.8379	0.518
14.8789	0.51
14.9199	0.505
14.9609	0.5
15.002	0.493
15.043	0.482
15.084	0.467
15.125	0.462
15.166	0.457
15.207	0.451
15.2481	0.446
15.2891	0.445
15.3301	0.438
15.3711	0.432
15.4121	0.427
15.4531	0.419
15.4941	0.412
15.5352	0.405
15.5762	0.402
15.6172	0.4
15.6582	0.396
15.6992	0.395
15.7402	0.395
15.7813	0.393
15.8223	0.395
15.8633	0.396
15.9043	0.396
15.9453	0.398
