Infrared Spectrum: THIOUREA
Formula: C H4 N2 S
CAS: 62-56-6
State: SOLID (MINERAL OIL MULL)
Class: COBLENTZ III
Instrument: PERKIN-ELMER 521 (GRATING)
Instrument parameters: FILTERS AT 3150, 2500, 2000, 1150, 700, 410; GRATING CHANGES AT 2000, 630 CM^-^1
Sampling: TRANSMISSION
Resolution: 4
Origin: DOW CORNING CORP.
1/CM	TRANSMITTANCE
234.445	0.868
244.286	0.864
254.128	0.863
263.969	0.863
273.811	0.873
283.652	0.887
293.494	0.893
303.335	0.892
313.177	0.888
323.018	0.881
332.86	0.873
342.701	0.868
352.542	0.848
362.384	0.826
372.225	0.808
382.067	0.797
391.908	0.755
401.75	0.693
411.591	0.602
421.433	0.565
431.274	0.492
441.115	0.425
450.957	0.374
460.798	0.346
470.64	0.346
480.481	0.353
490.323	0.327
500.164	0.344
510.006	0.371
519.847	0.402
529.689	0.448
539.53	0.503
549.371	0.55
559.213	0.601
569.054	0.646
578.896	0.689
588.737	0.73
598.579	0.748
608.42	0.727
618.262	0.676
628.103	0.649
637.945	0.649
647.786	0.765
657.627	0.841
667.469	0.86
677.31	0.893
687.152	0.931
696.993	0.923
706.835	0.893
716.676	0.804
726.518	0.625
736.359	0.532
746.201	0.86
756.042	0.906
765.883	0.908
775.725	0.906
785.566	0.92
795.408	0.928
805.249	0.93
815.091	0.94
824.932	0.938
834.774	0.934
844.615	0.908
854.456	0.903
864.298	0.897
874.139	0.877
883.981	0.86
893.822	0.834
903.664	0.825
913.505	0.798
923.347	0.785
933.188	0.762
943.03	0.755
952.871	0.742
962.712	0.734
972.554	0.728
982.395	0.738
992.237	0.735
1002.08	0.726
1011.92	0.711
1021.76	0.696
1031.6	0.672
1041.44	0.649
1051.29	0.618
1061.13	0.575
1070.97	0.502
1080.81	0.401
1090.65	0.455
1100.49	0.566
1110.33	0.616
1120.18	0.622
1130.02	0.614
1139.86	0.61
1149.7	0.608
1159.54	0.609
1169.38	0.616
1179.22	0.633
1189.07	0.641
1198.91	0.642
1208.75	0.648
1218.59	0.652
1228.43	0.653
1238.27	0.653
1248.11	0.652
1257.96	0.655
1267.8	0.656
1277.64	0.652
1287.48	0.641
1297.32	0.628
1307.16	0.621
1317	0.62
1326.85	0.6
1336.69	0.559
1346.53	0.504
1356.37	0.461
1366.21	0.33
1376.05	0.24
1385.89	0.346
1395.74	0.386
1405.58	0.268
1415.42	0.246
1425.26	0.311
1435.1	0.354
1444.94	0.225
1454.79	0.17
1464.63	0.173
1474.47	0.222
1484.31	0.565
1494.15	0.742
1503.99	0.808
1513.83	0.837
1523.68	0.84
1533.52	0.832
1543.36	0.806
1553.2	0.775
1563.04	0.734
1572.88	0.677
1582.72	0.593
1592.57	0.437
1602.41	0.257
1612.25	0.261
1622.09	0.299
1631.93	0.577
1641.77	0.834
1651.61	0.919
1661.46	0.947
1671.3	0.963
1681.14	0.967
1690.98	0.967
1700.82	0.966
1710.66	0.965
1720.5	0.963
1730.35	0.961
1740.19	0.955
1750.03	0.95
1759.87	0.948
1769.71	0.944
1779.55	0.943
1789.39	0.94
1799.24	0.935
1809.08	0.93
1818.92	0.928
1828.76	0.94
1838.6	0.942
1848.44	0.942
1858.28	0.94
1868.13	0.938
1877.97	0.934
1887.81	0.932
1897.65	0.932
1907.49	0.931
1917.33	0.928
1927.17	0.926
1937.02	0.923
1946.86	0.924
1956.7	0.92
1966.54	0.918
1976.38	0.916
1986.22	0.911
1996.06	0.906
2005.91	0.9
2015.75	0.895
2025.59	0.888
2035.43	0.887
2045.27	0.895
2055.11	0.896
2064.96	0.895
2074.8	0.887
2084.64	0.876
2094.48	0.871
2104.32	0.868
2114.16	0.871
2124	0.875
2133.85	0.8749
2143.69	0.873
2153.53	0.871
2163.37	0.8691
2173.21	0.868
2183.05	0.868
2192.89	0.867
2202.74	0.867
2212.58	0.867
2222.42	0.864
2232.26	0.863
2242.1	0.8629
2251.94	0.86
2261.78	0.8589
2271.63	0.8519
2281.47	0.8449
2291.31	0.8409
2301.15	0.834
2310.99	0.833
2320.83	0.83
2330.67	0.829
2340.52	0.826
2350.36	0.8281
2360.2	0.832
2370.04	0.829
2379.88	0.828
2389.72	0.8278
2399.56	0.8278
2409.41	0.824
2419.25	0.8219
2429.09	0.818
2438.93	0.813
2448.77	0.8098
2458.61	0.804
2468.45	0.819
2478.3	0.8196
2488.14	0.812
2497.98	0.8049
2507.82	0.7967
2517.66	0.7926
2527.5	0.7829
2537.34	0.7687
2547.19	0.7629
2557.03	0.7587
2566.87	0.7474
2576.71	0.7354
2586.55	0.7198
2596.39	0.7108
2606.24	0.6985
2616.08	0.6865
2625.92	0.6727
2635.76	0.6648
2645.6	0.6475
2655.44	0.6281
2665.28	0.6003
2675.13	0.5858
2684.97	0.5834
2694.81	0.5914
2704.65	0.6052
2714.49	0.6082
2724.33	0.6188
2734.17	0.6466
2744.02	0.6552
2753.86	0.6546
2763.7	0.6396
2773.54	0.6288
2783.38	0.5981
2793.22	0.5589
2803.06	0.5061
2812.91	0.4534
2822.75	0.3705
2832.59	0.2453
2842.43	0.1454
2852.27	0.134
2862.11	0.1365
2871.95	0.138
2881.8	0.135
2891.64	0.1295
2901.48	0.124
2911.32	0.123
2921.16	0.1272
2931	0.132
2940.84	0.1385
2950.69	0.143
2960.53	0.151
2970.37	0.1655
2980.21	0.2212
2990.05	0.2889
2999.89	0.343
3009.73	0.3783
3019.58	0.4014
3029.42	0.409
3039.26	0.4074
3049.1	0.4017
3058.94	0.3931
3068.78	0.3804
3078.62	0.3524
3088.47	0.3317
3098.31	0.3326
3108.15	0.3347
3117.99	0.3288
3127.83	0.2953
3137.67	0.2698
3147.51	0.2544
3157.36	0.251
3167.2	0.2523
3177.04	0.2576
3186.88	0.2726
3196.72	0.3071
3206.56	0.3657
3216.41	0.384
3226.25	0.3546
3236.09	0.3166
3245.93	0.2836
3255.77	0.2743
3265.61	0.269
3275.45	0.2723
3285.3	0.2888
3295.14	0.3167
3304.98	0.3234
3314.82	0.3236
3324.66	0.318
3334.5	0.3093
3344.34	0.2935
3354.19	0.2789
3364.03	0.2716
3373.87	0.268
3383.71	0.2724
3393.55	0.2821
3403.39	0.3191
3413.23	0.3911
3423.08	0.5145
3432.92	0.5956
3442.76	0.7096
3452.6	0.7714
3462.44	0.8046
3472.28	0.8232
3482.12	0.83
3491.97	0.8334
3501.81	0.833
3511.65	0.832
3521.49	0.8326
3531.33	0.829
3541.17	0.825
3551.01	0.821
3560.86	0.8117
3570.7	0.8037
3580.54	0.797
3590.38	0.79
3600.22	0.7837
3610.06	0.7761
3619.9	0.7681
3629.75	0.762
3639.59	0.757
3649.43	0.7535
3659.27	0.7486
3669.11	0.742
3678.95	0.7385
3688.79	0.734
3698.64	0.73
3708.48	0.726
3718.32	0.7225
3728.16	0.719
3738	0.7136
3747.84	0.705
3757.68	0.6965
3767.53	0.692
3777.37	0.6885
3787.21	0.685
