Infrared Spectrum: Tribromoethylene
Formula: C 2 H Br 3
CAS: 598-16-3
State: gas
Instrument: HP-GC/MS/IRD
Origin: NIST Mass Spectrometry Data Center
1/CM	ABSORBANCE
550	0.000348
562	0.0002523
574	0.000261
586	0.0002668
598	0.0006264
610	0.0006235
622	0.0003016
634	0.000203
646	0.0002668
658	0.0005336
670	0.001102
682	0.0033669
694	0.0152685
706	0.0260565
718	0.0076763
730	0.0023345
742	0.0015167
754	0.0031639
766	0.0103994
778	0.0064177
790	0.0020068
802	0.0036134
814	0.0082824
826	0.0207698
838	0.0284316
850	0.0080823
862	0.0012586
874	0.0006467
886	0.0003016
898	0.000174
910	0.0003248
922	0.0007047
934	0.0012441
946	0.0008062
958	0.000232
970	0.0001508
982	0.0001392
994	0.0002494
1006	0.000435
1018	0.0003364
1030	0.0002059
1042	0.0001566
1054	0.0002175
1066	0.0002494
1078	0.0002494
1090	7.54e-05
1102	0.0001073
1114	0.0001305
1126	3.19e-05
1138	0.0001015
1150	7.83e-05
1162	0.0002088
1174	0.0003422
1186	0.0003596
1198	0.0009802
1210	0.0039469
1222	0.0045501
1234	0.0010324
1246	0.0002204
1258	0.0001537
1270	0.0001305
1282	0.0001218
1294	0.0001595
1306	0.0001479
1318	0.0002407
1330	0.0004263
1342	0.0002668
1354	0.0001276
1366	0.000145
1378	0.0001827
1390	0.0002146
1402	0.0001798
1414	0.0001305
1426	8.41e-05
1438	6.09e-05
1450	6.67e-05
1462	2.32e-05
1474	1.45e-05
1486	6.67e-05
1498	0.0001798
1510	0.0005771
1522	0.001827
1534	0.0030856
1546	0.0021344
1558	0.001711
1570	0.0006757
1582	0.000174
1594	8.99e-05
1606	5.8e-05
1618	5.8e-05
1630	0.0001189
1642	0.0001218
1654	0.0001392
1666	0.0001827
1678	0.0002059
1690	0.0001624
1702	0.0001247
1714	0.0001711
1726	0.000145
1738	8.12e-05
1750	5.8e-05
1762	7.25e-05
1774	8.12e-05
1786	8.99e-05
1798	8.7e-05
1810	6.96e-05
1822	5.8e-05
1834	7.25e-05
1846	5.51e-05
1858	7.25e-05
1870	7.54e-05
1882	0.0001131
1894	9.86e-05
1906	0.0001421
1918	0.0001508
1930	0.000116
1942	4.64e-05
1954	8.41e-05
1966	6.67e-05
1978	8.99e-05
1990	6.96e-05
2002	8.12e-05
2014	8.41e-05
2026	0.0001044
2038	0.0001305
2050	0.0001363
2062	0.0001479
2074	8.99e-05
2086	8.12e-05
2098	8.7e-05
2110	9.86e-05
2122	8.99e-05
2134	6.96e-05
2146	9.28e-05
2158	6.38e-05
2170	9.86e-05
2182	8.7e-05
2194	5.51e-05
2206	8.41e-05
2218	6.67e-05
2230	8.99e-05
2242	8.12e-05
2254	7.54e-05
2266	7.83e-05
2278	0.0001073
2290	9.86e-05
2302	9.86e-05
2314	0.0001276
2326	8.99e-05
2338	9.86e-05
2350	0.0001015
2362	0.0001044
2374	9.28e-05
2386	0.0001044
2398	7.25e-05
2410	9.86e-05
2422	7.83e-05
2434	0.0001015
2446	0.0001218
2458	0.0001015
2470	6.96e-05
2482	0.0001131
2494	0.0001189
2506	8.7e-05
2518	8.99e-05
2530	9.57e-05
2542	6.09e-05
2554	7.25e-05
2566	8.7e-05
2578	9.28e-05
2590	9.86e-05
2602	7.54e-05
2614	8.41e-05
2626	4.35e-05
2638	5.8e-05
2650	7.83e-05
2662	5.8e-05
2674	8.7e-05
2686	8.7e-05
2698	6.67e-05
2710	9.86e-05
2722	9.86e-05
2734	0.0001131
2746	0.0001537
2758	0.0001653
2770	0.0001711
2782	8.99e-05
2794	8.41e-05
2806	0.0001218
2818	7.54e-05
2830	0.0001015
2842	8.12e-05
2854	8.41e-05
2866	5.8e-05
2878	7.54e-05
2890	5.22e-05
2902	8.7e-05
2914	6.38e-05
2926	4.93e-05
2938	5.51e-05
2950	9.57e-05
2962	8.41e-05
2974	0.0001131
2986	6.09e-05
2998	0.0001044
3010	0.0001131
3022	0.0001015
3034	0.0001653
3046	0.0002784
3058	0.000609
3070	0.001479
3082	0.0022069
3094	0.0023925
3106	0.002465
3118	0.0014384
3130	0.0003509
3142	0.000145
3154	0.000145
3166	0.0001856
3178	0.0001334
3190	0.0001218
3202	0.0001856
3214	0.000145
3226	9.57e-05
3238	0.0001537
3250	0.0001073
3262	0.0001537
3274	9.86e-05
3286	0.0001537
3298	0.0001044
3310	0.0001131
3322	8.99e-05
3334	0.000174
3346	0.000145
3358	0.0001015
3370	0.0001769
3382	0.000145
3394	0.0001914
3406	0.0001305
3418	0.0001131
3430	0.0001044
3442	0.000145
3454	0.0001943
3466	0.0001537
3478	0.0001943
3490	0.000116
3502	0.000145
3514	0.0001566
3526	0.0001595
3538	0.0001711
3550	0.0001247
3562	0.0001508
3574	0.0001943
3586	0.0001914
3598	0.0001972
3610	0.0001363
3622	0.0001624
3634	0.0001856
3646	0.0001015
3658	0.0001653
3670	7.54e-05
3682	0.0001218
3694	0.0001189
3706	0.0001856
3718	0.0001682
3730	0.0001363
3742	0.0001711
3754	0.0001247
3766	0.000174
3778	0.0001595
3790	0.0001479
3802	0.0001392
3814	0.0001624
3826	0.0001885
3838	0.0001131
