Infrared Spectrum: PYRAZOLE
Formula: C3 H4 N2
CAS: 288-13-1
State: SOLUTION (5% CCl4 FOR 3800-1335, 5% CS2 FOR 1335-400)
Melting point: 70 C
Class: COBLENTZ III
Instrument: BECKMAN IR-9 (GRATING)
Instrument parameters: ORDER CHANGES: 670, 1200, 2000 CM^-^1
Sampling: TRANSMISSION
Path length: 0.011 CM, 0.012 CM
Resolution: 2
Origin: DOW CHEMICAL COMPANY
1/CM	TRANSMITTANCE
400	0.151
409	0.2315
418	0.4262
427	0.5601
436	0.6617
445	0.7004
454	0.7541
463	0.7871
472	0.8252
481	0.85
490	0.8574
499	0.8568
508	0.8575
517	0.846
526	0.8158
535	0.8108
544	0.8315
553	0.8557
562	0.8597
571	0.8575
580	0.8518
589	0.8316
598	0.7711
607	0.6243
616	0.6354
625	0.8398
634	0.8527
643	0.8315
652	0.7672
661	0.8065
670	0.8042
679	0.7915
688	0.8263
697	0.8363
706	0.8344
715	0.8196
724	0.7939
733	0.7391
742	0.5042
751	0.012
760	0.1446
769	0.3254
778	0.3964
787	0.4356
796	0.4447
805	0.4195
814	0.3857
823	0.3638
832	0.5977
841	0.5902
850	0.3787
859	0.2733
868	0.2445
877	0.1557
886	0.391
895	0.4916
904	0.557
913	0.4733
922	0.4629
931	0.1521
940	0.5127
949	0.738
958	0.7822
967	0.8126
976	0.8287
985	0.8325
994	0.8266
1003	0.8108
1012	0.759
1021	0.6835
1030	0.3747
1039	0.1463
1048	0.2489
1057	0.6174
1066	0.7814
1075	0.8124
1084	0.8318
1093	0.8443
1102	0.8449
1111	0.829
1120	0.7312
1129	0.5673
1138	0.3134
1147	0.6498
1156	0.5072
1165	0.8342
1174	0.8685
1183	0.8725
1192	0.8817
1201	0.8796
1210	0.8796
1219	0.8755
1228	0.869
1237	0.8788
1246	0.8708
1255	0.8425
1264	0.7972
1273	0.8395
1282	0.8739
1291	0.8739
1300	0.8709
1309	0.8682
1318	0.8704
1327	0.8558
1336	0.8628
1345	0.8018
1354	0.6096
1363	0.3384
1372	0.7626
1381	0.7703
1390	0.6106
1399	0.2781
1408	0.5345
1417	0.6645
1426	0.7704
1435	0.7861
1444	0.7867
1453	0.7771
1462	0.7548
1471	0.7101
1480	0.6525
1489	0.6674
1498	0.6671
1507	0.6605
1516	0.6305
1525	0.5807
1534	0.5118
1543	0.4294
1552	0.3714
1561	0.4099
1570	0.4906
1579	0.5335
1588	0.5439
1597	0.6244
1606	0.676
1615	0.7105
1624	0.7328
1633	0.746
1642	0.7653
1651	0.7769
1660	0.78
1669	0.7751
1678	0.7685
1687	0.7649
1696	0.7669
1705	0.7704
1714	0.7751
1723	0.7811
1732	0.7914
1741	0.7997
1750	0.7881
1759	0.7748
1768	0.8115
1777	0.8314
1786	0.8398
1795	0.8464
1804	0.8517
1813	0.855
1822	0.8575
1831	0.8602
1840	0.8644
1849	0.8695
1858	0.8749
1867	0.8811
1876	0.8875
1885	0.8944
1894	0.9005
1903	0.9034
1912	0.9074
1921	0.9112
1930	0.9135
1939	0.9139
1948	0.914
1957	0.9138
1966	0.9139
1975	0.9146
1984	0.9151
1993	0.9154
2002	0.915
2011	0.9148
2020	0.9146
2029	0.9144
2038	0.9142
2047	0.9141
2056	0.9136
2065	0.9121
2074	0.9106
2083	0.9078
2092	0.9048
2101	0.9066
2110	0.9143
2119	0.9184
2128	0.9178
2137	0.9167
2146	0.9156
2155	0.9144
2164	0.9132
2173	0.9105
2182	0.9103
2191	0.9132
2200	0.9167
2209	0.9183
2218	0.9177
2227	0.916
2236	0.9145
2245	0.9131
2254	0.9101
2263	0.9027
2272	0.8944
2281	0.8864
2290	0.8787
2299	0.8723
2308	0.8742
2317	0.8812
2326	0.8867
2335	0.8921
2344	0.8968
2353	0.8999
2362	0.9012
2371	0.903
2380	0.9059
2389	0.8933
2398	0.8727
2407	0.8618
2416	0.8645
2425	0.8718
2434	0.8773
2443	0.8741
2452	0.8711
2461	0.868
2470	0.8641
2479	0.8604
2488	0.8562
2497	0.8428
2506	0.8321
2515	0.8368
2524	0.8405
2533	0.8433
2542	0.8456
2551	0.8468
2560	0.8461
2569	0.8441
2578	0.8371
2587	0.8214
2596	0.8062
2605	0.7834
2614	0.7544
2623	0.7226
2632	0.7268
2641	0.7435
2650	0.7441
2659	0.7303
2668	0.7157
2677	0.6988
2686	0.668
2695	0.6349
2704	0.6114
2713	0.6005
2722	0.6054
2731	0.6109
2740	0.5865
2749	0.5604
2758	0.5414
2767	0.5521
2776	0.5677
2785	0.5551
2794	0.5278
2803	0.4924
2812	0.4352
2821	0.3755
2830	0.346
2839	0.3689
2848	0.3689
2857	0.3492
2866	0.3237
2875	0.2621
2884	0.201
2893	0.1753
2902	0.1612
2911	0.1381
2920	0.1545
2929	0.1853
2938	0.1729
2947	0.1631
2956	0.1998
2965	0.2167
2974	0.2039
2983	0.1454
2992	0.1027
3001	0.0914
3010	0.1046
3019	0.181
3028	0.2982
3037	0.3075
3046	0.2884
3055	0.237
3064	0.1922
3073	0.1616
3082	0.1548
3091	0.1854
3100	0.2552
3109	0.2973
3118	0.2848
3127	0.2585
3136	0.2208
3145	0.1764
3154	0.1325
3163	0.0884
3172	0.0702
3181	0.0646
3190	0.0687
3199	0.0795
3208	0.0947
3217	0.1153
3226	0.1455
3235	0.1701
3244	0.2188
3253	0.2591
3262	0.3012
3271	0.3384
3280	0.3768
3289	0.4073
3298	0.4307
3307	0.4524
3316	0.4767
3325	0.504
3334	0.5336
3343	0.5629
3352	0.5886
3361	0.6112
3370	0.6337
3379	0.6614
3388	0.6839
3397	0.7007
3406	0.7188
3415	0.7354
3424	0.7518
3433	0.7671
3442	0.7772
3451	0.789
3460	0.789
3469	0.7793
3478	0.7161
3487	0.6865
3496	0.761
3505	0.8355
3514	0.8604
3523	0.8693
3532	0.8751
3541	0.8794
3550	0.8821
3559	0.8842
3568	0.8858
3577	0.8865
3586	0.8868
3595	0.8871
3604	0.8871
3613	0.8868
3622	0.887
3631	0.8875
3640	0.8883
3649	0.8883
3658	0.8881
3667	0.885
3676	0.8823
3685	0.882
3694	0.8878
3703	0.8923
3712	0.8947
3721	0.8947
3730	0.8946
3739	0.8946
3748	0.8946
3757	0.8947
3766	0.8948
3775	0.895
3784	0.8952
3793	0.8954
