Infrared Spectrum: CYCLOPENTADIENE
Formula: C5 H6
CAS: 542-92-7
State: LIQUID
Boiling point: 41 C
Class: COBLENTZ
Instrument: Not specified, most likely a prism, grating, or hybrid spectrometer.
Sampling: TRANSMISSION
Path length: 0.003 CM
Resolution: 4
Origin: WYANDOTTE CHEMICALS CORP., WYANDOTTE, MICHIGAN, USA
MICROMETERS	TRANSMITTANCE
2.033	0.968
2.07281	0.961
2.11262	0.958
2.15243	0.96
2.19225	0.958
2.23206	0.958
2.27187	0.955
2.31168	0.95
2.35149	0.945
2.3913	0.941
2.43111	0.94
2.47093	0.941
2.51074	0.935
2.55055	0.873
2.59036	0.925
2.63017	0.943
2.66998	0.956
2.7098	0.951
2.74961	0.955
2.78942	0.965
2.82923	0.963
2.86904	0.955
2.90885	0.961
2.94866	0.963
2.98848	0.956
3.02829	0.96
3.0681	0.95
3.10791	0.892
3.14772	0.92
3.18753	0.898
3.22734	0.725
3.26716	0.392
3.30697	0.531
3.34678	0.885
3.38659	0.73
3.4264	0.725
3.46621	0.453
3.50603	0.614
3.54584	0.843
3.58565	0.913
3.62546	0.931
3.66527	0.897
3.70508	0.825
3.74489	0.941
3.78471	0.943
3.82452	0.951
3.86433	0.953
3.90414	0.95
3.94395	0.94
3.98376	0.943
4.02357	0.94
4.06339	0.941
4.1032	0.933
4.14301	0.918
4.18282	0.94
4.22263	0.94
4.26244	0.933
4.30226	0.951
4.34207	0.95
4.38188	0.956
4.42169	0.93
4.4615	0.913
4.50131	0.921
4.54112	0.926
4.58094	0.933
4.62075	0.915
4.66056	0.882
4.70037	0.911
4.74018	0.918
4.77999	0.94
4.8198	0.938
4.85962	0.93
4.89943	0.936
4.93924	0.931
4.97905	0.923
5.01886	0.903
5.05867	0.918
5.09849	0.928
5.1383	0.935
5.17811	0.93
5.21792	0.936
5.25773	0.935
5.29754	0.923
5.33735	0.931
5.37717	0.92
5.41698	0.911
5.45679	0.847
5.4966	0.802
5.53641	0.838
5.57622	0.852
5.61603	0.901
5.65585	0.91
5.69566	0.9
5.73547	0.911
5.77528	0.911
5.81509	0.872
5.8549	0.903
5.89472	0.916
5.93453	0.921
5.97434	0.916
6.01415	0.901
6.05396	0.88
6.09377	0.79
6.13358	0.598
6.1734	0.712
6.21321	0.759
6.25302	0.697
6.29283	0.765
6.33264	0.852
6.37245	0.885
6.41226	0.905
6.45208	0.916
6.49189	0.915
6.5317	0.913
6.57151	0.916
6.61132	0.908
6.65113	0.863
6.69095	0.9
6.73076	0.908
6.77057	0.913
6.81038	0.906
6.85019	0.895
6.89	0.86
6.92981	0.828
6.96963	0.827
7.00944	0.86
7.04925	0.862
7.08906	0.82
7.12887	0.784
7.16868	0.749
7.20849	0.647
7.24831	0.471
7.28812	0.199
7.32793	0.044
7.36774	0.202
7.40755	0.569
7.44736	0.687
7.48718	0.774
7.52699	0.827
7.5668	0.847
7.60661	0.853
7.64642	0.852
7.68623	0.835
7.72604	0.699
7.76586	0.681
7.80567	0.808
7.84548	0.818
7.88529	0.827
7.9251	0.833
7.96491	0.807
8.00472	0.749
8.04454	0.601
8.08435	0.448
8.12416	0.672
8.16397	0.784
8.20378	0.835
8.24359	0.87
8.2834	0.882
8.32322	0.887
8.36303	0.89
8.40284	0.893
8.44265	0.892
8.48246	0.888
8.52227	0.888
8.56209	0.897
8.6019	0.892
8.64171	0.892
8.68152	0.898
8.72133	0.901
8.76114	0.903
8.80095	0.897
8.84077	0.877
8.88058	0.872
8.92039	0.858
8.9602	0.837
9.00001	0.807
9.03982	0.782
9.07963	0.785
9.11945	0.749
9.15926	0.651
9.19907	0.687
9.23888	0.777
9.27869	0.81
9.3185	0.827
9.35832	0.838
9.39813	0.848
9.43794	0.853
9.47775	0.868
9.51756	0.863
9.55737	0.872
9.59718	0.867
9.637	0.868
9.67681	0.867
9.71662	0.858
9.75643	0.852
9.79624	0.848
9.83605	0.85
9.87586	0.853
9.91568	0.85
9.95549	0.837
9.9953	0.828
10.0351	0.807
10.0749	0.789
10.1147	0.797
10.1545	0.794
10.1944	0.772
10.2342	0.732
10.274	0.676
10.3138	0.596
10.3536	0.455
10.3934	0.264
10.4332	0.122
10.473	0.149
10.5128	0.317
10.5527	0.468
10.5925	0.561
10.6323	0.606
10.6721	0.632
10.7119	0.641
10.7517	0.629
10.7915	0.596
10.8313	0.513
10.8712	0.398
10.911	0.212
10.9508	0.101
10.9906	0.149
11.0304	0.247
11.0702	0.31
11.11	0.282
11.1498	0.172
11.1896	0.068
11.2295	0.041
11.2693	0.048
11.3091	0.076
11.3489	0.179
11.3887	0.307
11.4285	0.446
11.4683	0.538
11.5081	0.596
11.5479	0.644
11.5878	0.676
11.6276	0.702
11.6674	0.732
11.7072	0.759
11.747	0.777
11.7868	0.785
11.8266	0.794
11.8664	0.799
11.9063	0.807
11.9461	0.807
11.9859	0.808
12.0257	0.803
12.0655	0.807
12.1053	0.797
12.1451	0.787
12.1849	0.779
12.2247	0.747
12.2646	0.732
12.3044	0.725
12.3442	0.686
12.384	0.594
12.4238	0.43
12.4636	0.33
12.5034	0.465
12.5432	0.616
12.583	0.691
12.6229	0.729
12.6627	0.752
12.7025	0.777
12.7423	0.789
12.7821	0.803
12.8219	0.808
12.8617	0.81
12.9015	0.815
12.9414	0.823
12.9812	0.823
13.021	0.823
13.0608	0.818
13.1006	0.81
13.1404	0.782
13.1802	0.74
13.22	0.697
13.2598	0.674
13.2997	0.727
13.3395	0.78
13.3793	0.8
13.4191	0.815
13.4589	0.815
13.4987	0.81
13.5385	0.813
13.5783	0.802
13.6181	0.789
13.658	0.782
13.6978	0.764
13.7376	0.722
13.7774	0.686
13.8172	0.704
13.857	0.735
13.8968	0.757
13.9366	0.762
13.9764	0.764
14.0163	0.759
14.0561	0.754
14.0959	0.749
14.1357	0.739
14.1755	0.722
14.2153	0.702
14.2551	0.689
14.2949	0.679
14.3348	0.674
14.3746	0.664
14.4144	0.651
14.4542	0.641
14.494	0.616
14.5338	0.596
14.5736	0.569
14.6134	0.551
14.6532	0.531
14.6931	0.495
14.7329	0.476
14.7727	0.443
14.8125	0.415
14.8523	0.387
14.8921	0.348
14.9319	0.332
14.9717	0.318
15.0115	0.352
15.0514	0.398
15.0912	0.41
15.131	0.372
15.1708	0.347
15.2106	0.352
15.2504	0.363
15.2902	0.385
15.33	0.401
15.3699	0.435
15.4097	0.465
15.4495	0.496
15.4893	0.546
15.5291	0.579
15.5689	0.606
15.6087	0.649
15.6485	0.667
15.6883	0.697
15.7282	0.71
15.768	0.734
15.8078	0.752
15.8476	0.759
15.8874	0.775
15.9272	0.787
15.967	0.792
