Infrared Spectrum: Glycerol
Formula: C 3 H 8 O 3
CAS: 56-81-5
State: gas
Instrument: HP-GC/MS/IRD
Origin: NIST Mass Spectrometry Data Center
1/CM	ABSORBANCE
550	0.0011424
562	0.0010815
574	0.0007686
586	0.0004704
598	0.0004221
610	0.0003927
622	0.000399
634	0.000609
646	0.000966
658	0.0011739
670	0.0010122
682	0.0005208
694	0.0001869
706	0.0001323
718	6.72e-05
730	9.66e-05
742	0.0001155
754	0.0002772
766	0.0004053
778	0.0005691
790	0.000546
802	0.0005712
814	0.0008274
826	0.0012138
838	0.0017031
850	0.0018291
862	0.0016422
874	0.0013776
886	0.0015225
898	0.002079
910	0.002583
922	0.0027258
934	0.002604
946	0.0027069
958	0.0032466
970	0.0039522
982	0.0048783
994	0.0062391
1006	0.0083055
1018	0.0117159
1030	0.0163317
1042	0.0199542
1054	0.0207165
1066	0.0176232
1078	0.0131985
1090	0.010353
1102	0.0090174
1114	0.0071358
1126	0.0049959
1138	0.003444
1150	0.0030051
1162	0.003171
1174	0.0035532
1186	0.0039312
1198	0.0041097
1210	0.0040845
1222	0.0040026
1234	0.0040425
1246	0.0041916
1258	0.0041958
1270	0.0039396
1282	0.0036036
1294	0.0034734
1306	0.0036099
1318	0.003927
1330	0.0042609
1342	0.0044793
1354	0.0046011
1366	0.0047271
1378	0.0048447
1390	0.0048405
1402	0.0043869
1414	0.0034566
1426	0.0024087
1438	0.0016863
1450	0.0016527
1462	0.0018879
1474	0.0017934
1486	0.0010899
1498	0.000567
1510	0.0003612
1522	0.0002856
1534	0.00021
1546	0.000168
1558	0.0001386
1570	9.66e-05
1582	7.56e-05
1594	3.57e-05
1606	0
1618	3.99e-05
1630	2.94e-05
1642	2.73e-05
1654	4.2e-05
1666	2.31e-05
1678	2.1e-05
1690	2.73e-05
1702	5.25e-05
1714	6.93e-05
1726	7.98e-05
1738	8.19e-05
1750	7.35e-05
1762	6.09e-05
1774	5.04e-05
1786	5.04e-05
1798	4.83e-05
1810	5.25e-05
1822	7.56e-05
1834	5.67e-05
1846	9.24e-05
1858	8.82e-05
1870	7.14e-05
1882	7.14e-05
1894	5.25e-05
1906	7.98e-05
1918	8.19e-05
1930	8.4e-05
1942	9.45e-05
1954	9.45e-05
1966	9.45e-05
1978	0.0001008
1990	0.0001113
2002	9.45e-05
2014	0.0001113
2026	0.0001281
2038	0.0001554
2050	0.0001785
2062	0.0001701
2074	0.0001701
2086	0.000168
2098	0.0001554
2110	0.0001638
2122	0.0001386
2134	0.0001218
2146	7.77e-05
2158	8.19e-05
2170	6.72e-05
2182	6.51e-05
2194	6.3e-05
2206	6.93e-05
2218	5.67e-05
2230	6.93e-05
2242	6.93e-05
2254	6.72e-05
2266	6.51e-05
2278	6.09e-05
2290	8.4e-05
2302	8.61e-05
2314	8.82e-05
2326	0.0001197
2338	0.0001302
2350	0.0001302
2362	0.0001701
2374	0.0001386
2386	0.0001302
2398	0.0001344
2410	0.0001344
2422	0.0001386
2434	0.0001281
2446	0.000147
2458	0.0001365
2470	0.000126
2482	0.0001281
2494	0.0001134
2506	0.0001176
2518	9.66e-05
2530	0.0001365
2542	0.000126
2554	0.0001344
2566	0.0001491
2578	0.0001533
2590	0.0001512
2602	0.0001806
2614	0.0001764
2626	0.0001974
2638	0.0002268
2650	0.0002373
2662	0.0002835
2674	0.0003108
2686	0.0003507
2698	0.000399
2710	0.0004578
2722	0.0004956
2734	0.0005922
2746	0.0006573
2758	0.0007287
2770	0.000819
2782	0.0009282
2794	0.0010437
2806	0.0011613
2818	0.0013251
2830	0.0016548
2842	0.0022008
2854	0.0032382
2866	0.0050232
2878	0.0073017
2890	0.0087549
2902	0.0085365
2914	0.0082215
2926	0.0094248
2938	0.0110502
2950	0.0109179
2962	0.0083076
2974	0.0049266
2986	0.0023919
2998	0.0010983
3010	0.0006468
3022	0.0004158
3034	0.0003339
3046	0.0002667
3058	0.0001911
3070	0.0001827
3082	0.0001491
3094	0.0001197
3106	0.0001113
3118	9.24e-05
3130	7.77e-05
3142	7.35e-05
3154	7.35e-05
3166	8.61e-05
3178	8.61e-05
3190	7.77e-05
3202	0.0001134
3214	0.0001113
3226	0.000126
3238	0.0001533
3250	0.0001218
3262	0.0001638
3274	0.0001932
3286	0.0001785
3298	0.0001848
3310	0.0002079
3322	0.0002226
3334	0.0002751
3346	0.0002436
3358	0.0002478
3370	0.0002814
3382	0.0002835
3394	0.000315
3406	0.0003024
3418	0.0002793
3430	0.0003738
3442	0.000378
3454	0.00042
3466	0.0004725
3478	0.000546
3490	0.0005439
3502	0.0006447
3514	0.0007224
3526	0.0007455
3538	0.0007959
3550	0.0009597
3562	0.0012747
3574	0.0019992
3586	0.0031227
3598	0.004326
3610	0.0056028
3622	0.0063378
3634	0.006342
3646	0.0056637
3658	0.0051744
3670	0.0049035
3682	0.0041727
3694	0.0028896
3706	0.0016548
3718	0.0010668
3730	0.0008022
3742	0.0007035
3754	0.0005985
3766	0.0004914
3778	0.0004305
3790	0.0004032
3802	0.0003885
3814	0.0003486
3826	0.0003339
3838	0.0002709
