Infrared Spectrum: 1,2,3-PROPANETRIOL
Formula: C3 H8 O3
CAS: 56-81-5
State: LIQUID (NEAT)
Class: COBLENTZ III
Instrument: DOW KBr FOREPRISM-GRATING
Instrument parameters: BLAZED AT 3.5, 12.0, 20.0 MICRON, CHANGED AT 5.0, 7.5, 14.9 MICRON
Sampling: TRANSMISSION
Path length: CAPILLARY
Resolution: 4
Origin: DOW CHEMICAL COMPANY
1/CM	TRANSMITTANCE
451.304	0.568
460	0.557
468.695	0.541
477.391	0.522
486.087	0.516
494.782	0.518
503.478	0.523
512.174	0.523
520.869	0.515
529.565	0.507
538.261	0.488
546.956	0.47
555.652	0.457
564.347	0.453
573.043	0.466
581.739	0.484
590.434	0.489
599.13	0.491
607.826	0.491
616.521	0.492
625.217	0.491
633.913	0.489
642.608	0.481
651.304	0.476
660	0.459
668.695	0.445
677.391	0.451
686.087	0.493
694.782	0.525
703.478	0.548
712.174	0.564
720.869	0.58
729.565	0.602
738.26	0.626
746.956	0.645
755.652	0.668
764.347	0.689
773.043	0.702
781.739	0.71
790.434	0.729
799.13	0.751
807.826	0.758
816.521	0.75
825.217	0.762
833.913	0.735
842.608	0.629
851.304	0.559
860	0.565
868.695	0.633
877.391	0.782
886.087	0.834
894.782	0.796
903.478	0.697
912.173	0.569
920.869	0.518
929.565	0.569
938.26	0.758
946.956	0.808
955.652	0.776
964.347	0.66
973.043	0.529
981.739	0.447
990.434	0.381
999.13	0.431
1007.83	0.489
1016.52	0.36
1025.22	0.164
1033.91	0.109
1042.61	0.111
1051.3	0.138
1060	0.188
1068.7	0.275
1077.39	0.351
1086.09	0.339
1094.78	0.302
1103.48	0.238
1112.17	0.233
1120.87	0.337
1129.56	0.563
1138.26	0.748
1146.96	0.803
1155.65	0.818
1164.35	0.805
1173.04	0.774
1181.74	0.715
1190.43	0.647
1199.13	0.598
1207.83	0.58
1216.52	0.583
1225.22	0.586
1233.91	0.59
1242.61	0.609
1251.3	0.628
1260	0.628
1268.7	0.617
1277.39	0.606
1286.09	0.59
1294.78	0.58
1303.48	0.567
1312.17	0.546
1320.87	0.525
1329.56	0.522
1338.26	0.523
1346.96	0.531
1355.65	0.541
1364.35	0.537
1373.04	0.522
1381.74	0.504
1390.43	0.481
1399.13	0.453
1407.83	0.438
1416.52	0.445
1425.22	0.457
1433.91	0.478
1442.61	0.502
1451.3	0.492
1460	0.492
1468.7	0.529
1477.39	0.637
1486.09	0.74
1494.78	0.807
1503.48	0.849
1512.17	0.875
1520.87	0.898
1529.56	0.91
1538.26	0.914
1546.96	0.93
1555.65	0.934
1564.35	0.941
1573.04	0.941
1581.74	0.943
1590.43	0.936
1599.13	0.922
1607.83	0.911
1616.52	0.89
1625.22	0.868
1633.91	0.862
1642.61	0.857
1651.3	0.853
1660	0.865
1668.7	0.89
1677.39	0.917
1686.09	0.941
1694.78	0.96
1703.48	0.978
1712.17	0.987
1720.87	0.994
1729.56	1
1738.26	1.005
1746.96	1.009
1755.65	1.014
1764.35	1.017
1773.04	1.017
1781.74	1.023
1790.43	1.023
1799.13	1.027
1807.83	1.025
1816.52	1.024
1825.22	1.025
1833.91	1.031
1842.61	1.029
1851.3	1.029
1860	1.029
1868.7	1.031
1877.39	1.032
1886.09	1.029
1894.78	1.029
1903.48	1.031
1912.17	1.028
1920.87	1.025
1929.56	1.028
1938.26	1.023
1946.96	1.018
1955.65	1.01
1964.35	1.021
1973.04	1.02
1981.74	1.02
1990.43	1.02
1999.13	1.013
2007.83	1.003
2016.52	1.001
2025.22	0.998
2033.91	0.998
2042.61	0.998
2051.3	0.997
2060	0.994
2068.7	0.99
2077.39	0.991
2086.09	0.994
2094.78	0.997
2103.48	0.997
2112.17	0.9975
2120.87	0.997
2129.56	0.997
2138.26	0.998
2146.96	0.998
2155.65	0.9995
2164.35	1.006
2173.04	1.008
2181.74	1.009
2190.43	1.009
2199.13	1.0095
2207.83	1.012
2216.52	1.009
2225.22	1.01
2233.91	1.01
2242.61	1.009
2251.3	1.01
2260	1.006
2268.7	1.006
2277.39	1.01
2286.09	1.001
2294.78	1
2303.48	1.001
2312.17	0.998
2320.87	1
2329.56	1
2338.26	0.993
2346.96	0.997
2355.65	0.9885
2364.35	0.9895
2373.04	0.993
2381.74	0.99
2390.43	0.986
2399.13	0.983
2407.83	0.9785
2416.52	0.972
2425.22	0.9665
2433.91	0.957
2442.61	0.955
2451.3	0.9505
2460	0.9445
2468.69	0.94
2477.39	0.94
2486.09	0.933
2494.78	0.927
2503.48	0.926
2512.17	0.922
2520.87	0.919
2529.56	0.9185
2538.26	0.914
2546.96	0.911
2555.65	0.91
2564.35	0.903
2573.04	0.8995
2581.74	0.8905
2590.43	0.8855
2599.13	0.8795
2607.83	0.8715
2616.52	0.8615
2625.22	0.8535
2633.91	0.8435
2642.61	0.839
2651.3	0.833
2660	0.831
2668.69	0.83
2677.39	0.8225
2686.09	0.821
2694.78	0.8165
2703.48	0.807
2712.17	0.797
2720.87	0.793
2729.56	0.7825
2738.26	0.7735
2746.96	0.764
2755.65	0.755
2764.35	0.746
2773.04	0.737
2781.74	0.7215
2790.43	0.7055
2799.13	0.69
2807.83	0.6595
2816.52	0.631
2825.22	0.59
2833.91	0.565
2842.61	0.5315
2851.3	0.4936
2860	0.4391
2868.69	0.3841
2877.39	0.321
2886.09	0.3265
2894.78	0.3565
2903.48	0.3735
2912.17	0.3645
2920.87	0.3245
2929.56	0.2875
2938.26	0.2865
2946.96	0.2995
2955.65	0.344
2964.35	0.4085
2973.04	0.5124
2981.74	0.5944
2990.43	0.662
2999.13	0.688
3007.83	0.6865
3016.52	0.6745
3025.22	0.661
3033.91	0.644
3042.61	0.6245
3051.3	0.5965
3060	0.5735
3068.69	0.553
3077.39	0.5255
3086.09	0.501
3094.78	0.466
3103.48	0.429
3112.17	0.4
3120.87	0.3695
3129.56	0.3381
3138.26	0.3125
3146.96	0.2675
3155.65	0.2315
3164.35	0.2045
3173.04	0.184
3181.74	0.161
3190.43	0.1415
3199.13	0.123
3207.83	0.1065
3216.52	0.094
3225.22	0.08
3233.91	0.074
3242.61	0.0705
3251.3	0.0645
3260	0.062
3268.69	0.06
3277.39	0.0555
3286.09	0.055
3294.78	0.055
3303.48	0.052
3312.17	0.052
3320.87	0.051
3329.56	0.05
3338.26	0.05
3346.96	0.05
3355.65	0.05
3364.35	0.05
3373.04	0.05
3381.74	0.05
3390.43	0.05
3399.13	0.0515
3407.83	0.052
3416.52	0.052
3425.22	0.054
3433.91	0.056
3442.61	0.056
3451.3	0.0575
3460	0.062
3468.69	0.0655
3477.39	0.0695
3486.09	0.077
3494.78	0.089
3503.48	0.112
3512.17	0.126
3520.87	0.155
3529.56	0.179
3538.26	0.208
3546.96	0.242
3555.65	0.302
3564.35	0.3475
3573.04	0.4015
3581.74	0.4605
3590.43	0.5184
3599.13	0.568
3607.83	0.6315
3616.52	0.691
3625.22	0.738
3633.91	0.783
3642.61	0.816
3651.3	0.8555
3660	0.88
3668.69	0.906
3677.39	0.9195
3686.09	0.9325
3694.78	0.9425
3703.48	0.9485
3712.17	0.952
3720.87	0.954
3729.56	0.956
3738.26	0.961
3746.96	0.9665
3755.65	0.963
3764.35	0.963
3773.04	0.9675
3781.74	0.967
3790.43	0.969
