Infrared Spectrum: 3-BUTEN-2-ONE
Formula: C4 H6 O
CAS: 78-94-4
Class: COBLENTZ
Instrument: Not specified, most likely a prism, grating, or hybrid spectrometer.
Sampling: TRANSMISSION
Path length: 0.002 CM CELL
Resolution: 4
Origin: TENNESSEE EASTMAN COMPANY, RESEARCH LABORATORIES
MICROMETERS	TRANSMITTANCE
2.013	0.869
2.05281	0.868
2.09262	0.864
2.13243	0.874
2.17225	0.871
2.21206	0.864
2.25187	0.856
2.29168	0.863
2.33149	0.869
2.3713	0.878
2.41112	0.879
2.45093	0.883
2.49074	0.884
2.53055	0.888
2.57036	0.893
2.61017	0.896
2.64999	0.899
2.6898	0.906
2.72961	0.908
2.76942	0.903
2.80923	0.894
2.84904	0.888
2.88885	0.883
2.92867	0.868
2.96848	0.851
3.00829	0.866
3.0481	0.881
3.08791	0.888
3.12772	0.886
3.16754	0.876
3.20735	0.828
3.24716	0.786
3.28697	0.757
3.32678	0.694
3.36659	0.732
3.40641	0.762
3.44622	0.833
3.48603	0.848
3.52584	0.901
3.56565	0.916
3.60546	0.921
3.64527	0.926
3.68509	0.926
3.7249	0.926
3.76471	0.928
3.80452	0.931
3.84433	0.936
3.88414	0.936
3.92396	0.938
3.96377	0.941
4.00358	0.941
4.04339	0.943
4.0832	0.946
4.12301	0.948
4.16283	0.946
4.20264	0.946
4.24245	0.948
4.28226	0.946
4.32207	0.944
4.36188	0.953
4.40169	0.959
4.44151	0.959
4.48132	0.959
4.52113	0.959
4.56094	0.956
4.60075	0.956
4.64056	0.954
4.68038	0.951
4.72019	0.963
4.76	0.968
4.79981	0.969
4.83962	0.966
4.87943	0.969
4.91925	0.969
4.95906	0.961
4.99887	0.953
5.03868	0.946
5.07849	0.939
5.1183	0.923
5.15811	0.919
5.19793	0.926
5.23774	0.939
5.27755	0.953
5.31736	0.971
5.35717	0.971
5.39698	0.969
5.4368	0.966
5.47661	0.963
5.51642	0.951
5.55623	0.943
5.59604	0.931
5.63585	0.913
5.67567	0.853
5.71548	0.719
5.75529	0.527
5.7951	0.357
5.83491	0.158
5.87472	0.108
5.91453	0.086
5.95435	0.033
5.99416	0.263
6.03397	0.604
6.07378	0.686
6.11359	0.696
6.1534	0.562
6.19322	0.397
6.23303	0.762
6.27284	0.846
6.31265	0.883
6.35246	0.893
6.39227	0.893
6.43209	0.868
6.4719	0.863
6.51171	0.884
6.55152	0.883
6.59133	0.878
6.63114	0.884
6.67095	0.889
6.71077	0.879
6.75058	0.859
6.79039	0.819
6.8302	0.767
6.87001	0.664
6.90982	0.579
6.94964	0.477
6.98945	0.419
7.02926	0.362
7.06907	0.247
7.10888	0.193
7.14869	0.308
7.18851	0.425
7.22832	0.444
7.26813	0.39
7.30794	0.217
7.34775	0.163
7.38756	0.272
7.42737	0.504
7.46719	0.686
7.507	0.777
7.54681	0.823
7.58662	0.851
7.62643	0.853
7.66624	0.828
7.70606	0.786
7.74587	0.731
7.78568	0.697
7.82549	0.674
7.8653	0.712
7.90511	0.641
7.94493	0.447
7.98474	0.258
8.02455	0.19
8.06436	0.414
8.10417	0.609
8.14398	0.681
8.18379	0.671
8.22361	0.759
8.26342	0.818
8.30323	0.782
8.34304	0.744
8.38285	0.597
8.42266	0.355
8.46248	0.288
8.50229	0.54
8.5421	0.657
8.58191	0.732
8.62172	0.824
8.66153	0.874
8.70135	0.908
8.74116	0.918
8.78097	0.929
8.82078	0.934
8.86059	0.933
8.9004	0.924
8.94021	0.908
8.98003	0.871
9.01984	0.823
9.05965	0.833
9.09946	0.883
9.13927	0.898
9.17908	0.909
9.2189	0.898
9.25871	0.831
9.29852	0.722
9.33833	0.674
9.37814	0.731
9.41795	0.766
9.45777	0.777
9.49758	0.794
9.53739	0.816
9.5772	0.823
9.61701	0.814
9.65682	0.803
9.69664	0.752
9.73645	0.676
9.77626	0.631
9.81607	0.659
9.85588	0.672
9.89569	0.644
9.9355	0.58
9.97532	0.477
10.0151	0.392
10.0549	0.362
10.0948	0.362
10.1346	0.39
10.1744	0.429
10.2142	0.417
10.254	0.368
10.2938	0.307
10.3336	0.26
10.3734	0.242
10.4132	0.257
10.4531	0.308
10.4929	0.36
10.5327	0.368
10.5725	0.409
10.6123	0.5
10.6521	0.617
10.6919	0.711
10.7317	0.774
10.7715	0.813
10.8114	0.844
10.8512	0.871
10.891	0.878
10.9308	0.874
10.9706	0.901
11.0104	0.921
11.0502	0.928
11.09	0.931
11.1299	0.914
11.1697	0.924
11.2095	0.936
11.2493	0.949
11.2891	0.953
11.3289	0.958
11.3687	0.954
11.4085	0.959
11.4483	0.961
11.4882	0.964
11.528	0.968
11.5678	0.971
11.6076	0.973
11.6474	0.974
11.6872	0.974
11.727	0.974
11.7668	0.974
11.8066	0.976
11.8465	0.976
11.8863	0.976
11.9261	0.974
11.9659	0.969
12.0057	0.969
12.0455	0.974
12.0853	0.976
12.1251	0.979
12.165	0.983
12.2048	0.984
12.2446	0.986
12.2844	0.988
12.3242	0.988
12.364	0.989
12.4038	0.989
12.4436	0.989
12.4834	0.989
12.5233	0.989
12.5631	0.989
12.6029	0.984
12.6427	0.983
12.6825	0.973
12.7223	0.964
12.7621	0.956
12.8019	0.936
12.8417	0.914
12.8816	0.898
12.9214	0.903
12.9612	0.909
13.001	0.906
13.0408	0.881
13.0806	0.853
13.1204	0.846
13.1602	0.858
13.2001	0.879
13.2399	0.894
13.2797	0.909
13.3195	0.921
13.3593	0.926
13.3991	0.934
13.4389	0.934
13.4787	0.936
13.5185	0.934
13.5584	0.934
13.5982	0.934
13.638	0.934
13.6778	0.929
13.7176	0.928
13.7574	0.923
13.7972	0.919
13.837	0.914
13.8769	0.913
13.9167	0.901
13.9565	0.898
13.9963	0.891
14.0361	0.883
14.0759	0.874
14.1157	0.866
14.1555	0.861
14.1953	0.851
14.2352	0.841
14.275	0.831
14.3148	0.819
14.3546	0.808
14.3944	0.797
14.4342	0.781
14.474	0.769
14.5138	0.759
14.5536	0.749
14.5935	0.744
14.6333	0.742
14.6731	0.742
14.7129	0.742
14.7527	0.744
14.7925	0.741
14.8323	0.737
14.8721	0.731
14.912	0.724
14.9518	0.729
14.9916	0.726
15.0314	0.729
15.0712	0.729
15.111	0.729
15.1508	0.732
15.1906	0.734
15.2304	0.737
15.2703	0.736
15.3101	0.732
15.3499	0.731
15.3897	0.731
15.4295	0.731
15.4693	0.729
15.5091	0.726
15.5489	0.724
15.5887	0.719
15.6286	0.719
15.6684	0.719
15.7082	0.716
15.748	0.716
15.7878	0.714
15.8276	0.712
15.8674	0.712
15.9072	0.712
15.9471	0.714
15.9869	0.712
