Infrared Spectrum: 3-BUTEN-2-ONE
Formula: C4 H6 O
CAS: 78-94-4
State: GAS (50 mmHg, N2 ADDED, TOTAL PRESSURE 600 mmHg)
Class: COBLENTZ
Instrument: DOW KBr FOREPRISM-GRATING
Instrument parameters: GRATING CHANGED AT 5.0, 7.5, 15.0 MICRON
Sampling: TRANSMISSION
Path length: 5 CM
Resolution: 2
Origin: DOW CHEMICAL COMPANY
1/CM	TRANSMITTANCE
469.225	0.855
477.682	0.814
486.14	0.798
494.597	0.764
503.054	0.782
511.512	0.789
519.969	0.802
528.427	0.829
536.884	0.872
545.341	0.874
553.799	0.908
562.256	0.906
570.713	0.913
579.171	0.91
587.628	0.88
596.085	0.855
604.543	0.842
613	0.845
621.457	0.893
629.915	0.938
638.372	0.948
646.83	0.931
655.287	0.908
663.744	0.87
672.202	0.874
680.659	0.88
689.116	0.862
697.574	0.854
706.031	0.9
714.488	0.929
722.946	0.957
731.403	0.959
739.861	0.94
748.318	0.919
756.775	0.905
765.233	0.894
773.69	0.929
782.147	0.941
790.605	0.962
799.062	0.976
807.519	0.978
815.977	0.978
824.434	0.976
832.891	0.972
841.349	0.969
849.806	0.966
858.264	0.962
866.721	0.963
875.178	0.95
883.636	0.937
892.093	0.934
900.55	0.932
909.008	0.929
917.465	0.899
925.922	0.773
934.38	0.521
942.837	0.348
951.294	0.115
959.752	0.329
968.209	0.341
976.667	0.486
985.124	0.4261
993.581	0.516
1002.04	0.357
1010.5	0.626
1018.95	0.706
1027.41	0.779
1035.87	0.814
1044.33	0.802
1052.78	0.792
1061.24	0.804
1069.7	0.849
1078.15	0.884
1086.61	0.935
1095.07	0.925
1103.53	0.916
1111.98	0.91
1120.44	0.921
1128.9	0.932
1137.36	0.925
1145.81	0.912
1154.27	0.851
1162.73	0.5531
1171.19	0.325
1179.64	0.283
1188.1	0.249
1196.56	0.477
1205.02	0.646
1213.47	0.662
1221.93	0.605
1230.39	0.372
1238.84	0.275
1247.3	0.256
1255.76	0.264
1264.22	0.405
1272.67	0.618
1281.13	0.757
1289.59	0.8
1298.05	0.849
1306.5	0.871
1314.96	0.894
1323.42	0.887
1331.88	0.823
1340.33	0.712
1348.79	0.475
1357.25	0.256
1365.71	0.218
1374.16	0.195
1382.62	0.254
1391.08	0.245
1399.53	0.2808
1407.99	0.224
1416.45	0.265
1424.91	0.354
1433.36	0.435
1441.82	0.478
1450.28	0.597
1458.74	0.71
1467.19	0.776
1475.65	0.83
1484.11	0.858
1492.57	0.875
1501.02	0.881
1509.48	0.875
1517.94	0.871
1526.39	0.868
1534.85	0.868
1543.31	0.871
1551.77	0.875
1560.22	0.891
1568.68	0.897
1577.14	0.899
1585.6	0.891
1594.05	0.868
1602.51	0.788
1610.97	0.616
1619.43	0.548
1627.88	0.508
1636.34	0.5541
1644.8	0.7381
1653.26	0.805
1661.71	0.824
1670.17	0.741
1678.63	0.557
1687.08	0.204
1695.54	0.037
1704	0.023
1712.46	0.007
1720.91	0.0491
1729.37	0.086
1737.83	0.1371
1746.29	0.329
1754.74	0.524
1763.2	0.689
1771.66	0.792
1780.12	0.851
1788.57	0.874
1797.03	0.894
1805.49	0.91
1813.95	0.922
1822.4	0.932
1830.86	0.938
1839.32	0.944
1847.77	0.948
1856.23	0.947
1864.69	0.944
1873.15	0.934
1881.6	0.919
1890.06	0.89
1898.52	0.872
1906.98	0.862
1915.43	0.877
1923.89	0.9
1932.35	0.905
1940.81	0.9
1949.26	0.91
1957.72	0.919
1966.18	0.938
1974.64	0.944
1983.09	0.938
1991.55	0.944
2000.01	0.945
2008.46	0.947
2016.92	0.95
2025.38	0.9535
2033.84	0.956
2042.29	0.956
2050.75	0.957
2059.21	0.959
2067.67	0.959
2076.12	0.96
2084.58	0.96
2093.04	0.958
2101.5	0.956
2109.95	0.9515
2118.41	0.944
2126.87	0.943
2135.32	0.944
2143.78	0.948
2152.24	0.951
2160.7	0.951
2169.15	0.951
2177.61	0.949
2186.07	0.945
2194.53	0.947
2202.98	0.954
2211.44	0.9625
2219.9	0.964
2228.36	0.964
2236.81	0.964
2245.27	0.963
2253.73	0.963
2262.19	0.963
2270.64	0.963
2279.1	0.96
2287.56	0.957
2296.01	0.957
2304.47	0.956
2312.93	0.956
2321.39	0.957
2329.84	0.957
2338.3	0.96
2346.76	0.9635
2355.22	0.964
2363.67	0.9595
2372.13	0.957
2380.59	0.959
2389.05	0.959
2397.5	0.96
2405.96	0.962
2414.42	0.963
2422.88	0.964
2431.33	0.964
2439.79	0.966
2448.25	0.964
2456.7	0.963
2465.16	0.9625
2473.62	0.963
2482.08	0.963
2490.53	0.963
2498.99	0.964
2507.45	0.963
2515.91	0.962
2524.36	0.959
2532.82	0.957
2541.28	0.9601
2549.74	0.9625
2558.19	0.963
2566.65	0.963
2575.11	0.963
2583.56	0.962
2592.02	0.962
2600.48	0.963
2608.94	0.963
2617.39	0.963
2625.85	0.964
2634.31	0.964
2642.77	0.9619
2651.22	0.96
2659.68	0.9589
2668.14	0.957
2676.6	0.956
2685.05	0.956
2693.51	0.954
2701.97	0.956
2710.43	0.957
2718.88	0.959
2727.34	0.9601
2735.8	0.9625
2744.25	0.96
2752.71	0.959
2761.17	0.959
2769.63	0.959
2778.08	0.957
2786.54	0.954
2795	0.954
2803.46	0.954
2811.91	0.953
2820.37	0.951
2828.83	0.9428
2837.29	0.9268
2845.74	0.9119
2854.2	0.8957
2862.66	0.8739
2871.12	0.8582
2879.57	0.843
2888.03	0.842
2896.49	0.839
2904.94	0.8278
2913.4	0.8104
2921.86	0.7418
2930.32	0.7113
2938.77	0.684
2947.23	0.6699
2955.69	0.6563
2964.15	0.6324
2972.6	0.5722
2981.06	0.5751
2989.52	0.6082
2997.98	0.6779
3006.43	0.6568
3014.89	0.6388
3023.35	0.6286
3031.8	0.6045
3040.26	0.6788
3048.72	0.7256
3057.18	0.7581
3065.63	0.769
3074.09	0.7726
3082.55	0.7759
3091.01	0.7465
3099.46	0.7097
3107.92	0.7299
3116.38	0.7161
3124.84	0.8169
3133.29	0.9215
3141.75	0.938
3150.21	0.9471
3158.67	0.951
3167.12	0.953
3175.58	0.9551
3184.04	0.956
3192.49	0.957
3200.95	0.9571
3209.41	0.9596
3217.87	0.96
3226.32	0.96
3234.78	0.959
3243.24	0.957
3251.7	0.9602
3260.15	0.964
3268.61	0.967
3277.07	0.967
3285.53	0.969
3293.98	0.967
3302.44	0.9669
3310.9	0.964
3319.36	0.962
3327.81	0.962
3336.27	0.9618
3344.73	0.962
3353.18	0.96
3361.64	0.954
3370.1	0.9335
3378.56	0.9102
3387.01	0.8988
3395.47	0.8996
3403.93	0.9162
3412.39	0.924
3420.84	0.925
3429.3	0.9276
3437.76	0.9311
3446.22	0.9468
3454.67	0.956
3463.13	0.959
3471.59	0.9621
3480.05	0.9652
3488.5	0.967
3496.96	0.969
3505.42	0.97
3513.87	0.9742
3522.33	0.975
3530.79	0.976
3539.25	0.976
3547.7	0.976
3556.16	0.976
3564.62	0.975
3573.08	0.973
3581.53	0.972
3589.99	0.97
3598.45	0.9694
3606.91	0.97
3615.36	0.97
3623.82	0.9702
3632.28	0.972
3640.73	0.973
3649.19	0.975
3657.65	0.9751
3666.11	0.976
3674.56	0.976
3683.02	0.975
3691.48	0.973
3699.94	0.9756
3708.39	0.988
3716.85	0.9792
3725.31	0.9729
3733.77	0.9624
3742.22	0.9521
3750.68	0.986
3759.14	0.989
3767.6	0.991
3776.05	0.9922
3784.51	0.9928
3792.97	0.9765
3801.42	0.9853
3809.88	0.9765
