Infrared Spectrum: 1-BUTEN-3-ONE
Formula: C4 H6 O
CAS: 78-94-4
State: SOLUTION (10% IN CCl4 FOR 3800-1340, 10% IN CS2 FOR 1340-400 CM^-^1)
Class: COBLENTZ III
Instrument: DOW KBr FOREPRISM-GRATING
Instrument parameters: BLAZED AT 3.5, 12.0, 20.0 MICRON, CHANGED AT 5.0, 7.5, 14.9 MICRON
Sampling: TRANSMISSION
Path length: 0.011, 0.011 CM
Resolution: 4
Origin: DOW CHEMICAL COMPANY
1/CM	TRANSMITTANCE
378.84	0.713
388.226	0.712
397.611	0.725
406.997	0.804
416.383	0.883
425.768	0.918
435.154	0.942
444.54	0.957
453.925	0.967
463.311	0.966
472.697	0.934
482.082	0.768
491.468	0.689
500.854	0.887
510.239	0.911
519.625	0.899
529.011	0.894
538.396	0.95
547.782	0.97
557.168	0.978
566.553	0.979
575.939	0.979
585.325	0.975
594.71	0.867
604.096	0.886
613.482	0.982
622.867	1.004
632.253	0.994
641.639	0.957
651.024	0.8681
660.41	0.83
669.796	0.831
679.181	0.82
688.567	0.851
697.953	0.93
707.338	0.97
716.724	0.993
726.11	1.004
735.495	1.006
744.881	0.993
754.267	0.931
763.652	0.958
773.038	0.926
782.424	1.005
791.809	1.013
801.195	1.016
810.581	1.013
819.966	1.014
829.352	1.01
838.738	0.985
848.123	0.903
857.509	0.856
866.895	0.891
876.28	0.927
885.666	0.961
895.052	0.983
904.437	0.983
913.823	0.963
923.209	0.914
932.594	0.7051
941.98	0.287
951.366	0.064
960.751	0.169
970.137	0.4169
979.523	0.2441
988.908	0.2071
998.294	0.4129
1007.68	0.66
1017.07	0.5261
1026.45	0.7119
1035.84	0.835
1045.22	0.822
1054.61	0.768
1063.99	0.772
1073.38	0.891
1082.77	0.93
1092.15	0.938
1101.54	0.937
1110.92	0.941
1120.31	0.954
1129.69	0.955
1139.08	0.947
1148.46	0.929
1157.85	0.86
1167.24	0.74
1176.62	0.1641
1186.01	0.3599
1195.39	0.75
1204.78	0.848
1214.16	0.835
1223.55	0.778
1232.94	0.668
1242.32	0.191
1251.71	0.06
1261.09	0.4509
1270.48	0.693
1279.86	0.6731
1289.25	0.709
1298.64	0.7599
1308.02	0.863
1317.41	0.877
1326.79	0.842
1336.18	0.76
1345.56	0.601
1354.95	0.176
1364.34	0.038
1373.72	0.3179
1383.11	0.462
1392.49	0.3381
1401.88	0.04
1411.26	0.155
1420.65	0.276
1430.03	0.314
1439.42	0.438
1448.81	0.636
1458.19	0.756
1467.58	0.827
1476.96	0.852
1486.35	0.86
1495.73	0.834
1505.12	0.802
1514.51	0.728
1523.89	0.669
1533.28	0.631
1542.66	0.501
1552.05	0.465
1561.43	0.52
1570.82	0.614
1580.21	0.655
1589.59	0.665
1598.98	0.681
1608.36	0.621
1617.75	0.1
1627.13	0.5059
1636.52	0.679
1645.91	0.683
1655.29	0.657
1664.68	0.5201
1674.06	0.1771
1683.45	0.014
1692.83	0.02
1702.22	0.049
1711.6	0.1319
1720.99	0.3909
1730.38	0.573
1739.76	0.6609
1749.15	0.795
1758.53	0.909
1767.92	0.947
1777.3	0.971
1786.69	0.985
1796.08	0.991
1805.46	1
1814.85	1.002
1824.23	1.009
1833.62	1.016
1843	1.009
1852.39	1.014
1861.78	1.018
1871.16	1.017
1880.55	1.01
1889.93	1.001
1899.32	0.986
1908.7	0.942
1918.09	0.923
1927.48	0.95
1936.86	0.955
1946.25	0.966
1955.63	0.979
1965.02	0.997
1974.4	0.993
1983.79	0.981
1993.18	0.977
2002.56	1.009
2011.95	1.04
2021.33	1.0455
2030.72	1.054
2040.1	1.053
2049.49	1.05
2058.87	1.054
2068.26	1.056
2077.65	1.059
2087.03	1.061
2096.42	1.06
2105.8	1.056
2115.19	1.0485
2124.57	1.036
2133.96	1.036
2143.35	1.042
2152.73	1.0426
2162.12	1.04
2171.5	1.033
2180.89	1.03
2190.27	1.0335
2199.66	1.0359
2209.05	1.0405
2218.43	1.0439
2227.82	1.046
2237.2	1.045
2246.59	1.042
2255.97	1.038
2265.36	1.0351
2274.75	1.032
2284.13	1.0256
2293.52	1.0221
2302.9	1.0147
2312.29	1.009
2321.67	1.012
2331.06	1.0091
2340.44	0.9987
2349.83	0.9858
2359.22	1.012
2368.6	1.006
2377.99	1.012
2387.37	1.0199
2396.76	1.028
2406.14	1.0318
2415.53	1.034
2424.92	1.034
2434.3	1.037
2443.69	1.034
2453.07	1.034
2462.46	1.034
2471.84	1.034
2481.23	1.033
2490.62	1.034
2500	1.033
2509.39	1.034
2518.77	1.033
2528.16	1.0256
2537.54	1.0289
2546.93	1.026
2556.32	1.029
2565.7	1.028
2575.09	1.028
2584.47	1.029
2593.86	1.026
2603.24	1.022
2612.63	1.022
2622.01	1.024
2631.4	1.0241
2640.79	1.022
2650.17	1.0173
2659.56	1.0152
2668.94	1.0131
2678.33	1.0124
2687.71	1.013
2697.1	1.0151
2706.49	1.0142
2715.87	1.017
2725.26	1.014
2734.64	1.012
2744.03	1.014
2753.41	1.0153
2762.8	1.01
2772.19	1.008
2781.57	1.008
2790.96	1.004
2800.34	1.004
2809.73	1.005
2819.11	1.0011
2828.5	0.9896
2837.89	0.981
2847.27	0.977
2856.66	0.9691
2866.04	0.966
2875.43	0.9633
2884.81	0.9563
2894.2	0.9493
2903.58	0.9396
2912.97	0.9138
2922.36	0.8672
2931.74	0.8624
2941.13	0.8797
2950.51	0.861
2959.9	0.8226
2969.28	0.7963
2978.67	0.7913
2988.06	0.7868
2997.44	0.7917
3006.83	0.7094
3016.21	0.7317
3025.6	0.7363
3034.98	0.8189
3044.37	0.842
3053.76	0.8354
3063.14	0.8414
3072.53	0.8919
3081.91	0.8956
3091.3	0.8463
3100.68	0.759
3110.07	0.8901
3119.46	0.9437
3128.84	0.9589
3138.23	0.969
3147.61	0.977
3157	0.981
3166.38	0.981
3175.77	0.983
3185.16	0.985
3194.54	0.987
3203.93	0.99
3213.31	0.987
3222.7	0.983
3232.08	0.982
3241.47	0.9876
3250.85	0.993
3260.24	0.991
3269.63	0.993
3279.01	0.9907
3288.4	0.9874
3297.78	0.9731
3307.17	0.9746
3316.55	0.974
3325.94	0.978
3335.33	0.9659
3344.71	0.9168
3354.1	0.8783
3363.48	0.9346
3372.87	0.967
3382.25	0.9615
3391.64	0.9482
3401.03	0.9516
3410.41	0.9708
3419.8	0.977
3429.18	0.981
3438.57	0.9845
3447.95	0.982
3457.34	0.981
3466.73	0.978
3476.11	0.9743
3485.5	0.9725
3494.88	0.969
3504.27	0.967
3513.65	0.9653
3523.04	0.9675
3532.42	0.9675
3541.81	0.969
3551.2	0.973
3560.58	0.9747
3569.97	0.979
3579.35	0.9759
3588.74	0.982
3598.12	0.983
3607.51	0.986
3616.9	0.9787
3626.28	0.985
3635.67	0.9806
3645.05	0.9852
3654.44	0.9886
3663.82	0.9724
3673.21	0.9661
3682.6	0.9799
3691.98	0.987
3701.37	0.989
3710.75	0.9898
3720.14	0.9853
3729.52	0.9868
3738.91	0.9884
3748.3	0.9914
3757.68	0.994
3767.07	0.9908
3776.45	0.993
3785.84	0.987
3795.22	0.987
