Infrared Spectrum: Cyclohexane
Formula: C 6 H 12
CAS: 110-82-7
State: gas
Origin: Sadtler Research Labs Under US-EPA Contract
1/CM	ABSORBANCE
450	0.00261974
462	0.00227373
474	0.00296574
486	0.00400375
498	0.00415204
510	0.00380603
522	0.00380603
534	0.00276802
546	0.00286688
558	0.00227373
570	0.00227373
582	0.00163116
594	0.00168059
606	0.00128515
618	0.00128515
630	0.00108744
642	0.00123573
654	0.000889722
666	0.000444861
678	0.00138401
690	0.00168059
702	0.0018783
714	0.00227373
726	0.00276802
738	0.00266917
750	0.00346003
762	0.00331174
774	0.00365775
786	0.00360832
798	0.00355889
810	0.00365775
822	0.00365775
834	0.00400375
846	0.00474518
858	0.0064752
870	0.00400375
882	0.00444861
894	0.00454747
906	0.00410261
918	0.00331174
930	0.00148287
942	0.00143344
954	0.00148287
966	0.00197716
978	0.00202659
990	0.00291631
1002	0.0034106
1014	0.00390489
1026	0.00430032
1038	0.00568433
1050	0.00385546
1062	0.00380603
1074	0.00385546
1086	0.00385546
1098	0.00331174
1110	0.00326231
1122	0.00281745
1134	0.00232316
1146	0.00232316
1158	0.00182887
1170	0.0011863
1182	0.00123573
1194	0.00128515
1206	0.0011863
1218	0.0011863
1230	0.00192773
1242	0.0037566
1254	0.00400375
1266	0.00454747
1278	0.00439918
1290	0.00360832
1302	0.00346003
1314	0.00355889
1326	0.00360832
1338	0.00336117
1350	0.00355889
1362	0.0034106
1374	0.0034106
1386	0.0034106
1398	0.00276802
1410	0.00296574
1422	0.00336117
1434	0.0114675
1446	0.0201176
1458	0.0364292
1470	0.0179427
1482	0.00632691
1494	0.00177944
1506	0.0015323
1518	0.00148287
1530	0.00158173
1542	0.00128515
1554	0.00261974
1566	0.00281745
1578	0.00281745
1590	0.00336117
1602	0.00331174
1614	0.00331174
1626	0.00311403
1638	0.0030646
1650	0.00242202
1662	0.00261974
1674	0.00158173
1686	0.00133458
1698	0.000840293
1710	0.0011863
1722	0.000642577
1734	0.000296574
1746	0.000444861
1758	0.000543719
1770	0.000939151
1782	0.00098858
1794	0.00148287
1806	0.00158173
1818	0.00212545
1830	0.00252088
1842	0.0030646
1854	0.00311403
1866	0.00301517
1878	0.00311403
1890	0.0030646
1902	0.0030646
1914	0.00252088
1926	0.00212545
1938	0.00207602
1950	0.00148287
1962	0.00108744
1974	0.00098858
1986	0.000543719
1998	0.000444861
2010	0.000543719
2022	0.000444861
2034	0.000444861
2046	0.000939151
2058	0.00113687
2070	0.00138401
2082	0.00197716
2094	0.00207602
2106	0.00286688
2118	0.00291631
2130	0.00331174
2142	0.00326231
2154	0.00331174
2166	0.00321288
2178	0.00281745
2190	0.00281745
2202	0.00237259
2214	0.00182887
2226	0.00128515
2238	0.00123573
2250	0.000790864
2262	0.000840293
2274	0.000247145
2286	0.000543719
2298	0.00123573
2310	0.00158173
2322	0.0022243
2334	0.00168059
2346	0.00182887
2358	0.00321288
2370	0.00286688
2382	0.00301517
2394	0.00301517
2406	0.0030646
2418	0.00301517
2430	0.00281745
2442	0.00261974
2454	0.00261974
2466	0.00252088
2478	0.00212545
2490	0.00182887
2502	0.00103801
2514	0.000543719
2526	4.9429e-05
2538	0.000346003
2550	0.000543719
2562	0.00049429
2574	0.000543719
2586	0.00163116
2598	0.00276802
2610	0.0034106
2622	0.00434975
2634	0.00395432
2646	0.00509119
2658	0.00721663
2670	0.00785921
2682	0.00731549
2694	0.0064752
2706	0.00573376
2718	0.00395432
2730	0.00252088
2742	0.00202659
2754	0.00207602
2766	0.00252088
2778	0.0034106
2790	0.00489347
2802	0.00711778
2814	0.00523947
2826	0.00538776
2838	0.0208096
2850	0.0808164
2862	0.156393
2874	0.0946565
2886	0.0509119
2898	0.0471553
2910	0.123078
2922	0.252632
2934	0.49429
2946	0.300232
2958	0.155553
2970	0.0264445
2982	0.00721663
2994	0.00346003
3006	0.00296574
3018	0.00247145
3030	0.00257031
3042	0.00202659
3054	0.00148287
3066	0.00103801
3078	0.0015323
3090	0.00143344
3102	0.00247145
3114	0.00247145
3126	0.00247145
3138	0.00247145
3150	0.0037566
3162	0.00385546
3174	0.00336117
3186	0.00286688
3198	0.00326231
3210	0.00286688
3222	0.00291631
3234	0.00291631
3246	0.00266917
3258	0.00252088
3270	0.00252088
3282	0.00247145
3294	0.00207602
3306	0.00202659
3318	0.0015323
3330	0.00148287
3342	0.00103801
3354	0.00148287
3366	0.000939151
3378	0.00098858
3390	0.0015323
3402	0.00182887
3414	0.00252088
3426	0.00286688
3438	0.00291631
3450	0.00350946
3462	0.00331174
3474	0.00257031
3486	0.00291631
3498	0.00291631
3510	0.00266917
3522	0.00232316
3534	0.00247145
3546	0.0015323
3558	0.00133458
3570	0.00158173
3582	0.00148287
3594	0.00049429
3606	0.00103801
3618	0.00098858
3630	0.000840293
3642	0.00207602
3654	0.00247145
3666	0.00252088
3678	0.00257031
3690	0.00247145
3702	0.00247145
3714	0.00281745
3726	0.00370717
3738	0.00370717
3750	0.00385546
3762	0.00390489
3774	0.0034106
3786	0.00286688
3798	0.00291631
3810	0.00252088
3822	0.00247145
3834	0.00247145
3846	0.00252088
3858	0.00252088
3870	0.00247145
3882	0.00286688
3894	0.0034106
3906	0.00390489
3918	0.00484404
3930	0.00489347
3942	0.00607977
3954	0.00731549
3966	0.0083535
