Infrared Spectrum: Cyclohexane
Formula: C6 H12
CAS: 110-82-7
State: LIQUID (NEAT)
Class: COBLENTZ II
Instrument: DOW KBr FOREPRISM-GRATING
Instrument parameters: BLAZED AT 3.5, 12.0, 20.0 MICRON AND CHANGED AT 5.0, 7.5, 14.9 MICRON
Sampling: TRANSMISSION
Path length: CAPILLARY
Resolution: 2
Origin: DOW CHEMICAL COMPANY
1/CM	TRANSMITTANCE
3800	0.8533
3791	0.8532
3782	0.8532
3773	0.8531
3764	0.8531
3755	0.8532
3746	0.8547
3737	0.856
3728	0.8566
3719	0.857
3710	0.8575
3701	0.8584
3692	0.8594
3683	0.8603
3674	0.8611
3665	0.8614
3656	0.8618
3647	0.8623
3638	0.8625
3629	0.8628
3620	0.863
3611	0.8632
3602	0.8636
3593	0.864
3584	0.864
3575	0.8637
3566	0.8634
3557	0.8637
3548	0.8641
3539	0.8645
3530	0.8651
3521	0.8655
3512	0.8657
3503	0.8657
3494	0.8655
3485	0.8651
3476	0.8649
3467	0.8647
3458	0.8636
3449	0.8625
3440	0.8628
3431	0.8631
3422	0.8635
3413	0.8641
3404	0.8648
3395	0.8655
3386	0.8662
3377	0.8668
3368	0.8675
3359	0.8681
3350	0.8688
3341	0.8695
3332	0.8706
3323	0.8716
3314	0.8725
3305	0.8735
3296	0.8744
3287	0.8752
3278	0.8761
3269	0.8768
3260	0.8775
3251	0.8781
3242	0.8788
3233	0.8794
3224	0.8797
3215	0.8801
3206	0.8804
3197	0.8807
3188	0.8806
3179	0.879
3170	0.8759
3161	0.8721
3152	0.8724
3143	0.8747
3134	0.8768
3125	0.8775
3116	0.8781
3107	0.8787
3098	0.8792
3089	0.8797
3080	0.8802
3071	0.8805
3062	0.8802
3053	0.8798
3044	0.8788
3035	0.8775
3026	0.8751
3017	0.8703
3008	0.8654
2999	0.8602
2990	0.8502
2981	0.8265
2972	0.7933
2963	0.7488
2954	0.4451
2945	0.2803
2936	0.0749
2927	0.041
2918	0.2068
2909	0.303
2900	0.4277
2891	0.5545
2882	0.6678
2873	0.6354
2864	0.3412
2855	0.2059
2846	0.6397
2837	0.7522
2828	0.8199
2819	0.8446
2810	0.8573
2801	0.8463
2792	0.8216
2783	0.8475
2774	0.8663
2765	0.8773
2756	0.8834
2747	0.8859
2738	0.8875
2729	0.8883
2720	0.888
2711	0.8857
2702	0.8806
2693	0.8743
2684	0.8746
2675	0.8811
2666	0.8678
2657	0.83
2648	0.8803
2639	0.8884
2630	0.8903
2621	0.8864
2612	0.8768
2603	0.8805
2594	0.8862
2585	0.8904
2576	0.8938
2567	0.8961
2558	0.898
2549	0.8993
2540	0.8998
2531	0.8997
2522	0.8996
2513	0.8991
2504	0.8989
2495	0.8987
2486	0.8978
2477	0.8968
2468	0.8968
2459	0.8966
2450	0.8965
2441	0.8964
2432	0.8964
2423	0.8963
2414	0.8964
2405	0.8968
2396	0.8975
2387	0.8985
2378	0.8998
2369	0.9012
2360	0.9028
2351	0.9038
2342	0.9048
2333	0.9053
2324	0.9054
2315	0.9045
2306	0.9036
2297	0.9025
2288	0.9021
2279	0.9028
2270	0.9037
2261	0.9013
2252	0.9005
2243	0.9001
2234	0.9008
2225	0.9014
2216	0.9017
2207	0.9014
2198	0.9025
2189	0.9054
2180	0.9105
2171	0.9097
2162	0.9075
2153	0.9063
2144	0.9057
2135	0.9078
2126	0.9099
2117	0.9098
2108	0.9093
2099	0.9085
2090	0.9078
2081	0.9066
2072	0.9052
2063	0.9043
2054	0.9054
2045	0.9061
2036	0.9054
2027	0.9036
2018	0.9013
2009	0.8995
2000	0.8982
1991	0.897
1982	0.8978
1973	0.9007
1964	0.8978
1955	0.8952
1946	0.8975
1937	0.8993
1928	0.899
1919	0.8996
1910	0.8995
1901	0.8994
1892	0.8996
1883	0.8994
1874	0.8999
1865	0.9
1856	0.8997
1847	0.8999
1838	0.8985
1829	0.8975
1820	0.8997
1811	0.9014
1802	0.9018
1793	0.9018
1784	0.902
1775	0.9012
1766	0.9008
1757	0.9017
1748	0.9025
1739	0.9035
1730	0.9041
1721	0.9043
1712	0.903
1703	0.9009
1694	0.8984
1685	0.8958
1676	0.8938
1667	0.8925
1658	0.8915
1649	0.8905
1640	0.8904
1631	0.8907
1622	0.891
1613	0.8902
1604	0.8886
1595	0.8878
1586	0.8871
1577	0.888
1568	0.8889
1559	0.8899
1550	0.8903
1541	0.8901
1532	0.8892
1523	0.8888
1514	0.8878
1505	0.8868
1496	0.8845
1487	0.8795
1478	0.8703
1469	0.8461
1460	0.7306
1451	0.5688
1442	0.8121
1433	0.8551
1424	0.8678
1415	0.8715
1406	0.8751
1397	0.8799
1388	0.8866
1379	0.8902
1370	0.8904
1361	0.8853
1352	0.8812
1343	0.8798
1334	0.8792
1325	0.8805
1316	0.8818
1307	0.8827
1298	0.8838
1289	0.8849
1280	0.8825
1271	0.8739
1262	0.8495
1253	0.8481
1244	0.8705
1235	0.8844
1226	0.8901
1217	0.8931
1208	0.8943
1199	0.8939
1190	0.8928
1181	0.8918
1172	0.8915
1163	0.8914
1154	0.8914
1145	0.8906
1136	0.8898
1127	0.8894
1118	0.8893
1109	0.8894
1100	0.8894
1091	0.8891
1082	0.8889
1073	0.8889
1064	0.8892
1055	0.8897
1046	0.8794
1037	0.8624
1028	0.878
1019	0.878
1010	0.8723
1001	0.8781
992	0.8828
983	0.8849
974	0.8861
965	0.8873
956	0.8881
947	0.8886
938	0.8885
929	0.887
920	0.8843
911	0.8734
902	0.7968
893	0.8771
884	0.8787
875	0.8737
866	0.8304
857	0.8494
848	0.873
839	0.8806
830	0.8821
821	0.8831
812	0.8844
803	0.8865
794	0.8863
785	0.8851
776	0.8834
767	0.8813
758	0.8787
749	0.8746
740	0.8699
731	0.865
722	0.8605
713	0.8563
704	0.8536
695	0.8508
686	0.8477
677	0.8468
668	0.8464
659	0.846
650	0.8461
641	0.8462
632	0.8471
623	0.8482
614	0.8489
605	0.8493
596	0.8486
587	0.8471
578	0.8444
569	0.8404
560	0.8353
551	0.8298
542	0.8224
533	0.816
524	0.8174
515	0.8282
506	0.8324
497	0.8321
488	0.8287
479	0.8234
470	0.8158
461	0.8068
452	0.7953
443	0.7812
434	0.7704
425	0.7636
416	0.7601
407	0.7587
398	0.7588
389	0.7604
