Infrared Spectrum: CYCLOHEXANE
Formula: C6 H12
CAS: 110-82-7
State: GAS (25 mmHg, N2 ADDED, TOTAL PRESSURE 600 mmHg)
Class: COBLENTZ
Instrument: PERKIN-ELMER 180
Sampling: TRANSMISSION
Path length: 18 CM
Resolution: 2
Origin: DOW CHEMICAL COMPANY
1/CM	TRANSMITTANCE
172.727	0.001
183.333	0.008
193.939	0.014
204.545	0.002
215.151	0.008
225.758	0.002
236.364	0.001
246.97	0.001
257.576	0.001
268.182	0.001
278.788	0.001
289.394	0.001
300	0.004
310.607	0.029
321.213	0.075
331.819	0.135
342.425	0.194
353.031	0.27
363.637	0.343
374.243	0.435
384.849	0.508
395.455	0.586
406.062	0.65
416.668	0.689
427.274	0.724
437.88	0.756
448.486	0.78
459.092	0.814
469.698	0.83
480.304	0.837
490.911	0.817
501.517	0.81
512.123	0.829
522.729	0.842
533.335	0.861
543.941	0.873
554.547	0.873
565.153	0.864
575.759	0.863
586.366	0.864
596.972	0.87
607.578	0.86
618.184	0.864
628.79	0.863
639.396	0.854
650.002	0.863
660.608	0.865
671.214	0.861
681.821	0.863
692.427	0.855
703.033	0.857
713.639	0.845
724.245	0.855
734.851	0.852
745.457	0.849
756.063	0.849
766.67	0.839
777.276	0.845
787.882	0.827
798.488	0.83
809.094	0.843
819.7	0.837
830.306	0.805
840.912	0.72
851.518	0.755
862.125	0.7151
872.731	0.736
883.337	0.784
893.943	0.7061
904.549	0.68
915.155	0.792
925.761	0.855
936.367	0.846
946.974	0.848
957.58	0.842
968.186	0.852
978.792	0.843
989.398	0.845
1000	0.815
1010.61	0.799
1021.22	0.787
1031.82	0.77
1042.43	0.795
1053.03	0.802
1063.64	0.848
1074.25	0.857
1084.85	0.839
1095.46	0.863
1106.07	0.863
1116.67	0.863
1127.28	0.845
1137.88	0.849
1148.49	0.86
1159.1	0.845
1169.7	0.855
1180.31	0.846
1190.91	0.861
1201.52	0.851
1212.13	0.851
1222.73	0.845
1233.34	0.835
1243.94	0.759
1254.55	0.727
1265.16	0.718
1275.76	0.737
1286.37	0.836
1296.98	0.854
1307.58	0.849
1318.19	0.846
1328.79	0.855
1339.4	0.842
1350.01	0.845
1360.61	0.854
1371.22	0.873
1381.82	0.842
1392.43	0.823
1403.04	0.852
1413.64	0.836
1424.25	0.801
1434.85	0.4709
1445.46	0.234
1456.07	0.282
1466.67	0.334
1477.28	0.7481
1487.89	0.857
1498.49	0.852
1509.1	0.865
1519.7	0.867
1530.31	0.874
1540.92	0.857
1551.52	0.882
1562.13	0.868
1572.73	0.863
1583.34	0.86
1593.95	0.865
1604.55	0.865
1615.16	0.863
1625.76	0.865
1636.37	0.864
1646.98	0.871
1657.58	0.858
1668.19	0.857
1678.8	0.854
1689.4	0.87
1700.01	0.868
1710.61	0.874
1721.22	0.865
1731.83	0.857
1742.43	0.857
1753.04	0.855
1763.64	0.86
1774.25	0.852
1784.86	0.861
1795.46	0.863
1806.07	0.855
1816.68	0.852
1827.28	0.854
1837.89	0.86
1848.49	0.86
1859.1	0.852
1869.71	0.843
1880.31	0.848
1890.92	0.854
1901.52	0.855
1912.13	0.861
1922.74	0.861
1933.34	0.855
1943.95	0.855
1954.55	0.857
1965.16	0.857
1975.77	0.854
1986.37	0.849
1996.98	0.854
2007.59	0.859
2018.19	0.8521
2028.8	0.8498
2039.4	0.8598
2050.01	0.857
2060.62	0.8482
2071.22	0.849
2081.83	0.845
2092.43	0.8476
2103.04	0.8342
2113.65	0.827
2124.25	0.804
2134.86	0.8259
2145.46	0.824
2156.07	0.8387
2166.68	0.8145
2177.28	0.8077
2187.89	0.8192
2198.5	0.8291
2209.1	0.8202
2219.71	0.8415
2230.31	0.8351
2240.92	0.8267
2251.53	0.8222
2262.13	0.8321
2272.74	0.826
2283.34	0.832
2293.95	0.8296
2304.56	0.8283
2315.16	0.846
2325.77	0.8455
2336.37	0.843
2346.98	0.8346
2357.59	0.8176
2368.19	0.8132
2378.8	0.823
2389.41	0.8207
2400.01	0.8264
2410.62	0.8293
2421.22	0.8352
2431.83	0.8404
2442.44	0.848
2453.04	0.8403
2463.65	0.826
2474.25	0.815
2484.86	0.8248
2495.47	0.836
2506.07	0.836
2516.68	0.837
2527.28	0.8283
2537.89	0.8239
2548.5	0.829
2559.1	0.8275
2569.71	0.8142
2580.32	0.7533
2590.92	0.727
2601.53	0.7323
2612.13	0.7723
2622.74	0.7864
2633.35	0.6687
2643.95	0.577
2654.56	0.59
2665.16	0.6648
2675.77	0.6927
2686.38	0.7034
2696.98	0.7493
2707.59	0.802
2718.2	0.8225
2728.8	0.8276
2739.41	0.8247
2750.01	0.8043
2760.62	0.7535
2771.23	0.6598
2781.83	0.5658
2792.44	0.6174
2803.04	0.6982
2813.65	0.7188
2824.26	0.194
2834.86	0.002
2845.47	0.002
2856.07	0.0068
2866.68	0.0883
2877.29	0.1751
2887.89	0.0209
2898.5	0.0024
2909.11	0.002
2919.71	0.002
2930.32	0.002
2940.92	0.0047
2951.53	0.3793
2962.14	0.7636
2972.74	0.7934
2983.35	0.8016
2993.95	0.808
3004.56	0.808
3015.17	0.8118
3025.77	0.8278
3036.38	0.833
3046.98	0.8313
3057.59	0.8274
3068.2	0.8231
3078.8	0.805
3089.41	0.817
3100.02	0.8263
3110.62	0.8203
3121.23	0.8036
3131.83	0.7619
3142.44	0.762
3153.05	0.7777
3163.65	0.8171
3174.26	0.8359
3184.86	0.837
3195.47	0.8429
3206.08	0.84
3216.68	0.8352
3227.29	0.835
3237.89	0.837
3248.5	0.8335
3259.11	0.8247
3269.71	0.817
3280.32	0.8217
3290.93	0.82
3301.53	0.8152
3312.14	0.8181
3322.74	0.8235
3333.35	0.824
3343.96	0.823
3354.56	0.8209
3365.17	0.829
3375.77	0.8326
3386.38	0.832
3396.99	0.8346
3407.59	0.8237
3418.2	0.8165
3428.8	0.803
3439.41	0.795
3450.02	0.8057
3460.62	0.8248
3471.23	0.8291
3481.84	0.8363
3492.44	0.84
3503.05	0.836
3513.65	0.836
3524.26	0.8407
3534.87	0.839
3545.47	0.833
3556.08	0.8416
3566.68	0.835
3577.29	0.8385
3587.9	0.843
3598.5	0.8474
3609.11	0.8488
3619.71	0.8454
3630.32	0.8332
3640.93	0.836
3651.53	0.836
3662.14	0.8385
3672.75	0.843
3683.35	0.8355
3693.96	0.8397
3704.56	0.8345
3715.17	0.829
3725.78	0.837
3736.38	0.845
3746.99	0.8357
3757.59	0.832
3768.2	0.8268
3778.81	0.828
3789.41	0.8364
3800.02	0.8354
3810.63	0.8361
3821.23	0.8397
3831.84	0.84
3842.44	0.8439
3853.05	0.8461
3863.66	0.8408
3874.26	0.8332
3884.87	0.83
3895.47	0.829
3906.08	0.827
3916.69	0.827
3927.29	0.8238
3937.9	0.8186
3948.5	0.8093
3959.11	0.7881
3969.72	0.7893
3980.32	0.8075
3990.93	0.829
