Infrared Spectrum: DIMETHYL SULFOXIDE
Formula: C2 H6 O S
CAS: 67-68-5
State: SOLUTION (10% IN CCl4 FOR 4000-1330 CM^-^1, 10% IN CS2 FOR 1330-600 CM^-^1)
Boiling point: 189 C
Class: COBLENTZ III
Instrument: BECKMAN IR-7 (GRATING)
Instrument parameters: GRATING CHANGES AT 3000, 2200, 1150 CM^-^1
Sampling: TRANSMISSION
Path length: 0.010 CM, 0.010 CM
Resolution: 4
Origin: WESTERN REGIONAL RES. USDA
1/CM	TRANSMITTANCE
603.307	0.775
611.904	0.784
620.501	0.797
629.098	0.793
637.695	0.787
646.292	0.754
654.889	0.698
663.486	0.666
672.084	0.722
680.681	0.74
689.278	0.6
697.875	0.656
706.472	0.746
715.069	0.777
723.666	0.79
732.263	0.795
740.86	0.796
749.457	0.796
758.054	0.8
766.651	0.803
775.248	0.804
783.845	0.802
792.442	0.796
801.04	0.797
809.637	0.799
818.234	0.798
826.831	0.802
835.428	0.798
844.025	0.773
852.622	0.701
861.219	0.652
869.816	0.674
878.413	0.698
887.01	0.7
895.607	0.737
904.204	0.771
912.801	0.778
921.399	0.647
929.996	0.711
938.593	0.742
947.19	0.614
955.787	0.69
964.384	0.745
972.981	0.773
981.578	0.78
990.175	0.769
998.772	0.737
1007.37	0.541
1015.97	0.523
1024.56	0.602
1033.16	0.616
1041.76	0.566
1050.35	0.481
1058.95	0.2132
1067.55	0.036
1076.15	0.136
1084.74	0.438
1093.34	0.628
1101.94	0.699
1110.53	0.74
1119.13	0.761
1127.73	0.775
1136.33	0.786
1144.92	0.794
1153.52	0.8
1162.12	0.802
1170.71	0.804
1179.31	0.806
1187.91	0.808
1196.5	0.808
1205.1	0.808
1213.7	0.806
1222.3	0.805
1230.89	0.803
1239.49	0.801
1248.09	0.798
1256.68	0.795
1265.28	0.791
1273.88	0.786
1282.48	0.772
1291.07	0.75
1299.67	0.709
1308.27	0.676
1316.86	0.699
1325.46	0.712
1334.06	0.741
1342.65	0.752
1351.25	0.765
1359.85	0.782
1368.45	0.771
1377.04	0.744
1385.64	0.642
1394.24	0.614
1402.83	0.2861
1411.43	0.41
1420.03	0.4
1428.63	0.491
1437.22	0.155
1445.82	0.495
1454.42	0.705
1463.01	0.766
1471.61	0.798
1480.21	0.802
1488.81	0.794
1497.4	0.763
1506	0.718
1514.6	0.667
1523.19	0.629
1531.79	0.583
1540.39	0.494
1548.98	0.433
1557.58	0.447
1566.18	0.509
1574.78	0.567
1583.37	0.585
1591.97	0.618
1600.57	0.677
1609.16	0.74
1617.76	0.782
1626.36	0.8
1634.96	0.814
1643.55	0.826
1652.15	0.831
1660.75	0.836
1669.34	0.842
1677.94	0.854
1686.54	0.862
1695.13	0.872
1703.73	0.874
1712.33	0.879
1720.93	0.881
1729.52	0.881
1738.12	0.883
1746.72	0.884
1755.31	0.885
1763.91	0.887
1772.51	0.891
1781.11	0.893
1789.7	0.893
1798.3	0.892
1806.9	0.892
1815.49	0.89
1824.09	0.889
1832.69	0.889
1841.28	0.89
1849.88	0.889
1858.48	0.887
1867.08	0.889
1875.67	0.89
1884.27	0.89
1892.87	0.887
1901.46	0.887
1910.06	0.889
1918.66	0.893
1927.26	0.894
1935.85	0.892
1944.45	0.878
1953.05	0.875
1961.64	0.873
1970.24	0.874
1978.84	0.87
1987.43	0.868
1996.03	0.864
2004.63	0.858
2013.23	0.855
2021.82	0.8517
2030.42	0.8488
2039.02	0.8451
2047.61	0.844
2056.21	0.845
2064.81	0.8475
2073.41	0.852
2082	0.8566
2090.6	0.8632
2099.2	0.8687
2107.79	0.8723
2116.39	0.8759
2124.99	0.8804
2133.59	0.883
2142.18	0.885
2150.78	0.8866
2159.38	0.887
2167.97	0.888
2176.57	0.889
2185.17	0.8907
2193.76	0.893
2202.36	0.8925
2210.96	0.8828
2219.56	0.8772
2228.15	0.8771
2236.75	0.8798
2245.35	0.8844
2253.94	0.8791
2262.54	0.8715
2271.14	0.8665
2279.74	0.8642
2288.33	0.8629
2296.93	0.8606
2305.53	0.8513
2314.12	0.8401
2322.72	0.834
2331.32	0.8249
2339.91	0.7874
2348.51	0.735
2357.11	0.7445
2365.71	0.7689
2374.3	0.7739
2382.9	0.8005
2391.5	0.867
2400.09	0.8858
2408.69	0.8881
2417.29	0.891
2425.89	0.893
2434.48	0.895
2443.08	0.897
2451.68	0.898
2460.27	0.897
2468.87	0.898
2477.47	0.9
2486.06	0.901
2494.66	0.901
2503.26	0.901
2511.86	0.901
2520.45	0.903
2529.05	0.903
2537.65	0.903
2546.24	0.903
2554.84	0.9021
2563.44	0.901
2572.04	0.8976
2580.63	0.8923
2589.23	0.889
2597.83	0.891
2606.42	0.893
2615.02	0.8939
2623.62	0.897
2632.22	0.897
2640.81	0.898
2649.41	0.899
2658.01	0.899
2666.6	0.9
2675.2	0.9
2683.8	0.8988
2692.39	0.895
2700.99	0.8933
2709.59	0.893
2718.19	0.893
2726.78	0.893
2735.38	0.893
2743.98	0.893
2752.57	0.893
2761.17	0.893
2769.77	0.892
2778.37	0.891
2786.96	0.889
2795.56	0.882
2804.16	0.8656
2812.75	0.8566
2821.35	0.857
2829.95	0.858
2838.54	0.8533
2847.14	0.8485
2855.74	0.85
2864.34	0.8539
2872.93	0.8507
2881.53	0.8484
2890.13	0.8442
2898.72	0.8318
2907.32	0.7286
2915.92	0.5462
2924.52	0.5942
2933.11	0.6922
2941.71	0.7878
2950.31	0.8208
2958.9	0.8228
2967.5	0.8111
2976.1	0.801
2984.69	0.7808
2993.29	0.7369
3001.89	0.6185
3010.49	0.6199
3019.08	0.7035
3027.68	0.7774
3036.28	0.8119
3044.87	0.828
3053.47	0.8383
3062.07	0.8426
3070.67	0.8458
3079.26	0.8511
3087.86	0.854
3096.46	0.8557
3105.05	0.859
3113.65	0.8623
3122.25	0.8645
3130.85	0.8668
3139.44	0.869
3148.04	0.8704
3156.64	0.8717
3165.23	0.872
3173.83	0.872
3182.43	0.873
3191.02	0.872
3199.62	0.872
3208.22	0.8692
3216.82	0.8673
3225.41	0.8661
3234.01	0.8658
3242.61	0.8625
3251.2	0.861
3259.8	0.8632
3268.4	0.8674
3277	0.869
3285.59	0.8631
3294.19	0.8608
3302.79	0.8575
3311.38	0.854
3319.98	0.853
3328.58	0.853
3337.17	0.852
3345.77	0.852
3354.37	0.85
3362.97	0.8475
3371.56	0.842
3380.16	0.8379
3388.76	0.8317
3397.35	0.829
3405.95	0.8261
3414.55	0.821
3423.15	0.8175
3431.74	0.8133
3440.34	0.811
3448.94	0.81
3457.53	0.81
3466.13	0.811
3474.73	0.813
3483.32	0.8154
3491.92	0.8187
3500.52	0.821
3509.12	0.8233
3517.71	0.827
3526.31	0.8309
3534.91	0.8361
3543.5	0.8414
3552.1	0.8457
3560.7	0.85
3569.3	0.8563
3577.89	0.8611
3586.49	0.8648
3595.09	0.8671
3603.68	0.8748
3612.28	0.8804
3620.88	0.8829
3629.47	0.8863
3638.07	0.8905
3646.67	0.894
3655.27	0.895
3663.86	0.895
3672.46	0.8933
3681.06	0.8852
3689.65	0.87
3698.25	0.8705
3706.85	0.8898
3715.45	0.899
3724.04	0.901
3732.64	0.902
3741.24	0.903
3749.83	0.903
3758.43	0.903
3767.03	0.902
3775.63	0.902
3784.22	0.902
3792.82	0.902
3801.42	0.902
3810.01	0.903
3818.61	0.903
3827.21	0.903
3835.8	0.903
3844.4	0.903
3853	0.903
3861.6	0.903
3870.19	0.903
3878.79	0.903
3887.39	0.903
3895.98	0.903
3904.58	0.903
3913.18	0.8978
3921.78	0.8913
3930.37	0.889
3938.97	0.8939
3947.57	0.8977
3956.16	0.899
3964.76	0.9013
3973.36	0.903
3981.95	0.903
