Infrared Spectrum: DIMETHYL SULFOXIDE
Formula: C2 H6 S O
CAS: 67-68-5
State: SOLUTION (10.75% IN CCl4 FOR 3800-1300, 2.24% IN CS2 FOR 1300-620, AND 10.75% IN CCl4 FOR 620-250 CM^-^1) VERSUS SOLVENT
Class: COBLENTZ
Instrument: Not specified, most likely a grating or hybrid spectrometer.
Sampling: TRANSMISSION
Path length: 0.0105, 0.0105, AND 0.0095 CM (CsBr CELL)
Resolution: 4
Origin: DOW CORNING CORP.
1/CM	TRANSMITTANCE
224.78	0.874
233.733	0.872
242.686	0.879
251.639	0.877
260.591	0.874
269.544	0.872
278.497	0.862
287.45	0.839
296.403	0.809
305.356	0.788
314.309	0.759
323.262	0.6261
332.214	0.4669
341.167	0.753
350.12	0.804
359.073	0.795
368.026	0.741
376.979	0.4642
385.932	0.6919
394.884	0.823
403.837	0.849
412.79	0.863
421.743	0.867
430.696	0.86
439.649	0.86
448.602	0.849
457.555	0.827
466.507	0.86
475.46	0.865
484.413	0.863
493.366	0.863
502.319	0.863
511.272	0.865
520.225	0.863
529.177	0.862
538.13	0.863
547.083	0.865
556.036	0.865
564.989	0.865
573.942	0.865
582.895	0.863
591.848	0.86
600.8	0.849
609.753	0.83
618.706	0.795
627.659	0.776
636.612	0.755
645.565	0.712
654.518	0.607
663.47	0.614
672.423	0.699
681.376	0.5423
690.329	0.429
699.282	0.647
708.235	0.783
717.188	0.821
726.141	0.834
735.093	0.841
744.046	0.849
752.999	0.867
761.952	0.881
770.905	0.884
779.858	0.91
788.811	0.872
797.763	0.862
806.716	0.858
815.669	0.86
824.622	0.86
833.575	0.86
842.528	0.853
851.481	0.841
860.434	0.834
869.386	0.818
878.339	0.778
887.292	0.757
896.245	0.785
905.198	0.75
914.151	0.5252
923.104	0.561
932.056	0.616
941.009	0.389
949.962	0.4789
958.915	0.652
967.868	0.724
976.821	0.717
985.774	0.666
994.727	0.516
1003.68	0.2261
1012.63	0.198
1021.59	0.286
1030.54	0.254
1039.49	0.0891
1048.44	0.008
1057.4	0
1066.35	0.001
1075.3	0.066
1084.26	0.336
1093.21	0.551
1102.16	0.649
1111.11	0.712
1120.07	0.752
1129.02	0.781
1137.97	0.806
1146.93	0.823
1155.88	0.835
1164.83	0.837
1173.78	0.839
1182.74	0.837
1191.69	0.837
1200.64	0.835
1209.6	0.832
1218.55	0.828
1227.5	0.825
1236.45	0.82
1245.41	0.816
1254.36	0.813
1263.31	0.808
1272.27	0.802
1281.22	0.797
1290.17	0.787
1299.12	0.652
1308.08	0.664
1317.03	0.699
1325.98	0.757
1334.94	0.82
1343.89	0.83
1352.84	0.832
1361.79	0.818
1370.75	0.797
1379.7	0.766
1388.65	0.7289
1397.61	0.5471
1406.56	0.581
1415.51	0.5811
1424.46	0.631
1433.42	0.263
1442.37	0.7081
1451.32	0.811
1460.28	0.837
1469.23	0.837
1478.18	0.841
1487.13	0.846
1496.09	0.844
1505.04	0.846
1513.99	0.846
1522.95	0.846
1531.9	0.844
1540.85	0.842
1549.8	0.839
1558.76	0.832
1567.71	0.828
1576.66	0.818
1585.62	0.832
1594.57	0.832
1603.52	0.834
1612.47	0.837
1621.43	0.839
1630.38	0.849
1639.33	0.849
1648.29	0.855
1657.24	0.858
1666.19	0.863
1675.14	0.862
1684.1	0.867
1693.05	0.869
1702	0.87
1710.96	0.87
1719.91	0.872
1728.86	0.874
1737.81	0.872
1746.77	0.872
1755.72	0.874
1764.67	0.877
1773.63	0.879
1782.58	0.879
1791.53	0.879
1800.48	0.877
1809.44	0.881
1818.39	0.881
1827.34	0.881
1836.3	0.879
1845.25	0.877
1854.2	0.877
1863.15	0.881
1872.11	0.876
1881.06	0.874
1890.01	0.876
1898.97	0.879
1907.92	0.881
1916.87	0.877
1925.82	0.872
1934.78	0.87
1943.73	0.867
1952.68	0.869
1961.64	0.869
1970.59	0.865
1979.54	0.863
1988.49	0.863
1997.45	0.86
2006.4	0.86
2015.35	0.8699
2024.31	0.884
2033.26	0.886
2042.21	0.89
2051.16	0.886
2060.12	0.881
2069.07	0.876
2078.02	0.871
2086.98	0.869
2095.93	0.863
2104.88	0.8551
2113.83	0.853
2122.79	0.8549
2131.74	0.8569
2140.69	0.8719
2149.65	0.876
2158.6	0.872
2167.55	0.872
2176.5	0.874
2185.46	0.87
2194.41	0.8691
2203.36	0.869
2212.32	0.869
2221.27	0.8694
2230.22	0.8691
2239.18	0.869
2248.13	0.8633
2257.08	0.8638
2266.03	0.8699
2274.99	0.8712
2283.94	0.865
2292.89	0.862
2301.85	0.862
2310.8	0.862
2319.75	0.8562
2328.7	0.855
2337.66	0.8616
2346.61	0.874
2355.56	0.8839
2364.52	0.8802
2373.47	0.872
2382.42	0.872
2391.37	0.872
2400.33	0.872
2409.28	0.872
2418.23	0.872
2427.19	0.872
2436.14	0.872
2445.09	0.874
2454.04	0.874
2463	0.874
2471.95	0.8747
2480.9	0.8723
2489.86	0.8707
2498.81	0.872
2507.76	0.872
2516.71	0.874
2525.67	0.874
2534.62	0.872
2543.57	0.87
2552.53	0.869
2561.48	0.8664
2570.43	0.8622
2579.38	0.8623
2588.34	0.8666
2597.29	0.8693
2606.24	0.869
2615.2	0.8676
2624.15	0.869
2633.1	0.87
2642.05	0.87
2651.01	0.87
2659.96	0.8692
2668.91	0.8684
2677.87	0.865
2686.82	0.8623
2695.77	0.865
2704.72	0.863
2713.68	0.863
2722.63	0.863
2731.58	0.863
2740.54	0.863
2749.49	0.863
2758.44	0.863
2767.39	0.86
2776.35	0.8572
2785.3	0.8493
2794.25	0.8385
2803.21	0.8343
2812.16	0.834
2821.11	0.834
2830.06	0.835
2839.02	0.837
2847.97	0.842
2856.92	0.839
2865.88	0.834
2874.83	0.8285
2883.78	0.8226
2892.73	0.8136
2901.69	0.7714
2910.64	0.6801
2919.59	0.5827
2928.55	0.7943
2937.5	0.813
2946.45	0.8116
2955.4	0.8056
2964.36	0.7892
2973.31	0.775
2982.26	0.7334
2991.22	0.6579
3000.17	0.608
3009.12	0.6929
3018.07	0.7695
3027.03	0.7949
3035.98	0.8094
3044.93	0.8135
3053.89	0.8207
3062.84	0.825
3071.79	0.828
3080.74	0.8345
3089.7	0.839
3098.65	0.839
3107.6	0.839
3116.56	0.8393
3125.51	0.846
3134.46	0.848
3143.41	0.848
3152.37	0.848
3161.32	0.849
3170.27	0.851
3179.23	0.8523
3188.18	0.855
3197.13	0.8572
3206.08	0.86
3215.04	0.8592
3223.99	0.86
3232.94	0.862
3241.9	0.863
3250.85	0.863
3259.8	0.869
3268.75	0.869
3277.71	0.8648
3286.66	0.862
3295.61	0.858
3304.57	0.858
3313.52	0.858
3322.47	0.858
3331.42	0.858
3340.38	0.858
3349.33	0.86
3358.28	0.8554
3367.24	0.851
3376.19	0.851
3385.14	0.851
3394.09	0.849
3403.05	0.848
3412	0.846
3420.95	0.844
3429.91	0.844
3438.86	0.846
3447.81	0.8471
3456.76	0.848
3465.72	0.8485
3474.67	0.851
3483.62	0.853
3492.58	0.853
3501.53	0.8555
3510.48	0.8561
3519.44	0.86
3528.39	0.863
3537.34	0.866
3546.29	0.869
3555.25	0.871
3564.2	0.874
3573.15	0.878
3582.11	0.888
3591.06	0.882
3600.01	0.879
3608.96	0.882
3617.92	0.884
3626.87	0.886
3635.82	0.883
3644.78	0.888
3653.73	0.883
3662.68	0.878
3671.63	0.872
3680.59	0.8704
3689.54	0.8829
3698.49	0.888
3707.45	0.8881
3716.4	0.89
3725.35	0.891
3734.3	0.8939
3743.26	0.895
3752.21	0.8941
3761.16	0.8901
3770.12	0.89
3779.07	0.89
3788.02	0.888
