Infrared Spectrum: Dimethyl Sulfoxide
Formula: C 2 H 6 O S
CAS: 67-68-5
State: gas
Origin: Sadtler Research Labs Under US-EPA Contract
1/CM	ABSORBANCE
450	0.00725606
462	0.00618298
474	0.00587638
486	0.00413902
498	0.00265715
510	0.00265715
522	0.00352583
534	0.00352583
546	0.00291264
558	0.00378133
570	0.0049055
582	0.00245275
594	0.00173737
606	0.00608078
618	0.0112929
630	0.0233522
642	0.0320902
654	0.0541138
666	0.0747578
678	0.0719474
690	0.0517122
702	0.0264693
714	0.00439451
726	0.00286154
738	0.000664287
750	0.00459891
762	0.00602968
774	0.00388352
786	0.000562089
798	0.00107308
810	0.00143077
822	0.00107308
834	0.00158407
846	0.00281044
858	0.00413902
870	0.00628518
882	0.00975991
894	0.0183956
906	0.0238632
918	0.0359737
930	0.0406748
942	0.0317836
954	0.019622
966	0.0156874
978	0.0227902
990	0.0415946
1002	0.0587638
1014	0.0468578
1026	0.03766
1038	0.0180379
1050	0.0193665
1062	0.0528364
1074	0.17762
1086	0.380636
1098	0.456161
1110	0.356978
1122	0.239859
1134	0.0389885
1146	0.00572309
1158	0.00470111
1170	0.00367913
1182	0.00465001
1194	0.00480331
1206	0.00424122
1218	0.00429232
1230	0.00413902
1242	0.00465001
1254	0.00475221
1266	0.00664287
1278	0.0129791
1290	0.0242209
1302	0.0353605
1314	0.0423611
1326	0.033572
1338	0.0227391
1350	0.0107308
1362	0.0103731
1374	0.0128258
1386	0.0251918
1398	0.0368935
1410	0.0406748
1422	0.0591726
1434	0.0436896
1446	0.0506391
1458	0.0345429
1470	0.0188044
1482	0.00684727
1494	0.00413902
1506	0.00388352
1518	0.00362803
1530	0.00286154
1542	0.00327034
1554	0.00357693
1566	0.00434341
1578	0.00638737
1590	0.00592748
1602	0.00556979
1614	0.00597858
1626	0.0049055
1638	0.00378133
1650	0.00275935
1662	0.00255495
1674	0.00204396
1686	0.00245275
1698	0.00235055
1710	0.00173737
1722	0.00301484
1734	0.00327034
1746	0.00470111
1758	0.00740936
1770	0.00735826
1782	0.00608078
1794	0.00362803
1806	0.00235055
1818	0.00240165
1830	0.00214616
1842	0.00219726
1854	0.00245275
1866	0.00281044
1878	0.00306594
1890	0.00327034
1902	0.00316814
1914	0.00342363
1926	0.00357693
1938	0.00454781
1950	0.0049055
1962	0.00454781
1974	0.00465001
1986	0.00424122
1998	0.00367913
2010	0.00316814
2022	0.00265715
2034	0.00275935
2046	0.00209506
2058	0.00122638
2070	0.00132857
2082	0.00178846
2094	0.00245275
2106	0.00311704
2118	0.00275935
2130	0.00286154
2142	0.00337253
2154	0.00459891
2166	0.00684727
2178	0.00878903
2190	0.00981101
2202	0.00884013
2214	0.00613188
2226	0.00362803
2238	0.00301484
2250	0.00347473
2262	0.00357693
2274	0.00327034
2286	0.00275935
2298	0.00265715
2310	0.00270825
2322	0.00291264
2334	0.00158407
2346	0.00112418
2358	0.00250385
2370	0.000102198
2382	0.000919782
2394	0.00240165
2406	0.00189066
2418	0.00245275
2430	0.00199286
2442	0.00153297
2454	0.00148187
2466	0.00153297
2478	0.00153297
2490	0.00163517
2502	0.00112418
2514	0.00107308
2526	0.00112418
2538	0.00117528
2550	0.00112418
2562	0.00163517
2574	0.00168627
2586	0.00168627
2598	0.00173737
2610	0.00122638
2622	0.00229946
2634	0.00224836
2646	0.00281044
2658	0.00301484
2670	0.00240165
2682	0.00189066
2694	0.00143077
2706	0.00117528
2718	0.00112418
2730	0.000970881
2742	0.00153297
2754	0.000970881
2766	0.000919782
2778	0.00153297
2790	0.00255495
2802	0.00413902
2814	0.0053654
2826	0.00454781
2838	0.00551869
2850	0.00398572
2862	0.00419012
2874	0.00301484
2886	0.00393462
2898	0.0145632
2910	0.0332143
2922	0.0453248
2934	0.0341852
2946	0.022688
2958	0.00592748
2970	0.00889123
2982	0.0214616
2994	0.0324479
3006	0.0430765
3018	0.0356671
3030	0.0224836
3042	0.00546759
3054	0.00168627
3066	0.00158407
3078	0.00168627
3090	0.00168627
3102	0.00178846
3114	0.00178846
3126	0.00178846
3138	0.00178846
3150	0.00178846
3162	0.00183956
3174	0.00224836
3186	0.00250385
3198	0.00296374
3210	0.00235055
3222	0.00183956
3234	0.00178846
3246	0.00270825
3258	0.00178846
3270	0.00194176
3282	0.00199286
3294	0.00296374
3306	0.00327034
3318	0.00352583
3330	0.00199286
3342	0.00158407
3354	0.00229946
3366	0.00168627
3378	0.00199286
3390	0.00209506
3402	0.00168627
3414	0.00183956
3426	0.00163517
3438	0.00214616
3450	0.00194176
3462	0.00219726
3474	0.00122638
3486	0.00163517
3498	0.00219726
3510	0.00194176
3522	0.00102198
3534	0.00127747
3546	0.00204396
3558	0.00158407
3570	0.00362803
3582	0.00265715
3594	0.00224836
3606	0.00214616
3618	0.00183956
3630	0.00143077
3642	0.00163517
3654	0.000459891
3666	0.00102198
3678	0.000664287
3690	0.000868683
3702	0.000102198
3714	0
3726	0
3738	0.000102198
3750	0
3762	0
3774	0
3786	0
3798	0
3810	0
3822	0.000613188
3834	0.000970881
3846	0.000153297
3858	0
3870	0.00107308
3882	0.000204396
3894	0.000664287
3906	0.00122638
3918	0.00224836
3930	0.00163517
3942	0.00143077
3954	0.000715386
3966	0.000715386
