Infrared Spectrum: SULFOXIDE, DIMETHYL
Formula: C2 H6 S O
CAS: 67-68-5
State: LIQUID (NEAT)
Class: COBLENTZ III
Instrument: PERKIN-ELMER 180
Sampling: TRANSMISSION
Path length: CAPILLARY
Resolution: 4
Origin: STANDARD OIL OF OHIO
1/CM	TRANSMITTANCE
247.297	0.779
256.756	0.779
266.216	0.783
275.675	0.794
285.135	0.798
294.594	0.771
304.054	0.615
313.513	0.603
322.973	0.4593
332.432	0.128
341.892	0.406
351.351	0.6049
360.811	0.711
370.27	0.628
379.73	0.2014
389.189	0.3977
398.649	0.7399
408.108	0.85
417.568	0.855
427.027	0.883
436.487	0.888
445.946	0.891
455.406	0.889
464.865	0.889
474.325	0.891
483.784	0.893
493.244	0.893
502.703	0.888
512.163	0.884
521.622	0.883
531.082	0.881
540.541	0.879
550.001	0.872
559.46	0.867
568.92	0.861
578.379	0.852
587.839	0.844
597.298	0.835
606.758	0.828
616.217	0.82
625.677	0.811
635.136	0.805
644.596	0.784
654.055	0.764
663.515	0.688
672.974	0.73
682.434	0.776
691.893	0.5496
701.353	0.6448
710.812	0.813
720.272	0.869
729.731	0.888
739.191	0.901
748.65	0.905
758.11	0.913
767.569	0.913
777.029	0.918
786.488	0.922
795.948	0.923
805.407	0.923
814.867	0.923
824.326	0.922
833.786	0.92
843.245	0.92
852.705	0.915
862.164	0.911
871.624	0.906
881.083	0.888
890.543	0.844
900.002	0.837
909.462	0.849
918.921	0.7861
928.381	0.642
937.84	0.662
947.3	0.5771
956.759	0.484
966.219	0.674
975.678	0.777
985.138	0.777
994.597	0.733
1004.06	0.606
1013.52	0.3281
1022.98	0.232
1032.44	0.189
1041.89	0.098
1051.35	0.074
1060.81	0.077
1070.27	0.1788
1079.73	0.5299
1089.19	0.711
1098.65	0.784
1108.11	0.82
1117.57	0.842
1127.03	0.859
1136.49	0.871
1145.95	0.881
1155.41	0.889
1164.87	0.894
1174.33	0.894
1183.79	0.896
1193.25	0.898
1202.71	0.898
1212.17	0.898
1221.63	0.896
1231.08	0.896
1240.54	0.896
1250	0.894
1259.46	0.889
1268.92	0.883
1278.38	0.867
1287.84	0.822
1297.3	0.781
1306.76	0.654
1316.22	0.6861
1325.68	0.761
1335.14	0.771
1344.6	0.811
1354.06	0.825
1363.52	0.827
1372.98	0.822
1382.44	0.791
1391.9	0.735
1401.36	0.598
1410.82	0.525
1420.27	0.545
1429.73	0.516
1439.19	0.4761
1448.65	0.6788
1458.11	0.815
1467.57	0.847
1477.03	0.866
1486.49	0.871
1495.95	0.877
1505.41	0.879
1514.87	0.884
1524.33	0.884
1533.79	0.884
1543.25	0.886
1552.71	0.884
1562.17	0.884
1571.63	0.877
1581.09	0.874
1590.55	0.871
1600.01	0.871
1609.46	0.866
1618.92	0.864
1628.38	0.862
1637.84	0.864
1647.3	0.862
1656.76	0.862
1666.22	0.862
1675.68	0.869
1685.14	0.872
1694.6	0.876
1704.06	0.881
1713.52	0.884
1722.98	0.884
1732.44	0.888
1741.9	0.886
1751.36	0.891
1760.82	0.889
1770.28	0.893
1779.74	0.894
1789.19	0.894
1798.65	0.893
1808.11	0.894
1817.57	0.893
1827.03	0.893
1836.49	0.893
1845.95	0.893
1855.41	0.893
1864.87	0.891
1874.33	0.891
1883.79	0.886
1893.25	0.884
1902.71	0.883
1912.17	0.883
1921.63	0.884
1931.09	0.883
1940.55	0.879
1950.01	0.871
1959.47	0.869
1968.93	0.869
1978.38	0.866
1987.84	0.861
1997.3	0.859
2006.76	0.866
2016.22	0.871
2025.68	0.88
2035.14	0.886
2044.6	0.885
2054.06	0.883
2063.52	0.876
2072.98	0.872
2082.44	0.869
2091.9	0.869
2101.36	0.871
2110.82	0.872
2120.28	0.88
2129.74	0.886
2139.2	0.89
2148.66	0.891
2158.12	0.891
2167.57	0.888
2177.03	0.884
2186.49	0.881
2195.95	0.881
2205.41	0.877
2214.87	0.876
2224.33	0.876
2233.79	0.879
2243.25	0.879
2252.71	0.876
2262.17	0.876
2271.63	0.876
2281.09	0.877
2290.55	0.877
2300.01	0.876
2309.47	0.883
2318.93	0.884
2328.39	0.885
2337.85	0.888
2347.31	0.8885
2356.76	0.894
2366.22	0.8845
2375.68	0.883
2385.14	0.883
2394.6	0.883
2404.06	0.881
2413.52	0.881
2422.98	0.881
2432.44	0.881
2441.9	0.881
2451.36	0.881
2460.82	0.881
2470.28	0.883
2479.74	0.881
2489.2	0.883
2498.66	0.88
2508.12	0.881
2517.58	0.881
2527.04	0.881
2536.5	0.88
2545.95	0.876
2555.41	0.874
2564.87	0.872
2574.33	0.869
2583.79	0.869
2593.25	0.869
2602.71	0.872
2612.17	0.871
2621.63	0.871
2631.09	0.871
2640.55	0.871
2650.01	0.871
2659.47	0.871
2668.93	0.869
2678.39	0.867
2687.85	0.8665
2697.31	0.867
2706.77	0.866
2716.23	0.866
2725.69	0.864
2735.14	0.862
2744.6	0.861
2754.06	0.861
2763.52	0.856
2772.98	0.852
2782.44	0.85
2791.9	0.84
2801.36	0.8255
2810.82	0.816
2820.28	0.812
2829.74	0.811
2839.2	0.808
2848.66	0.803
2858.12	0.7975
2867.58	0.789
2877.04	0.779
2886.5	0.759
2895.96	0.72
2905.42	0.6371
2914.88	0.5747
2924.33	0.711
2933.79	0.752
2943.25	0.755
2952.71	0.751
2962.17	0.738
2971.63	0.6995
2981.09	0.642
2990.55	0.531
3000.01	0.5591
3009.47	0.6555
3018.93	0.7229
3028.39	0.758
3037.85	0.774
3047.31	0.7845
3056.77	0.798
3066.23	0.801
3075.69	0.806
3085.15	0.8155
3094.61	0.82
3104.06	0.826
3113.52	0.833
3122.98	0.8375
3132.44	0.84
3141.9	0.842
3151.36	0.844
3160.82	0.844
3170.28	0.844
3179.74	0.844
3189.2	0.842
3198.66	0.842
3208.12	0.84
3217.58	0.838
3227.04	0.837
3236.5	0.837
3245.96	0.837
3255.42	0.838
3264.88	0.837
3274.34	0.834
3283.8	0.832
3293.25	0.83
3302.71	0.828
3312.17	0.83
3321.63	0.83
3331.09	0.832
3340.55	0.832
3350.01	0.831
3359.47	0.827
3368.93	0.825
3378.39	0.823
3387.85	0.822
3397.31	0.82
3406.77	0.815
3416.23	0.813
3425.69	0.813
3435.15	0.813
3444.61	0.813
3454.07	0.813
3463.53	0.813
3472.99	0.813
3482.44	0.8155
3491.9	0.816
3501.36	0.819
3510.82	0.822
3520.28	0.826
3529.74	0.832
3539.2	0.8375
3548.66	0.842
3558.12	0.845
3567.58	0.85
3577.04	0.851
3586.5	0.859
3595.96	0.86
3605.42	0.862
3614.88	0.866
3624.34	0.867
3633.8	0.868
3643.26	0.872
3652.72	0.868
3662.18	0.871
3671.63	0.8715
3681.09	0.867
3690.55	0.866
3700.01	0.869
3709.47	0.87
3718.93	0.871
3728.39	0.873
3737.85	0.872
3747.31	0.87
3756.77	0.866
3766.23	0.862
3775.69	0.861
3785.15	0.856
3794.61	0.855
3804.07	0.853
3813.53	0.85
3822.99	0.848
3832.45	0.845
3841.91	0.844
3851.37	0.844
3860.82	0.845
3870.28	0.845
3879.74	0.845
3889.2	0.845
