Infrared Spectrum: Ethane
Formula: C 2 H 6
CAS: 74-84-0
State: gas
Origin: Sadtler Research Labs Under US-EPA Contract
1/CM	ABSORBANCE
450	0.0131641
462	0.00952463
474	0.00588514
486	0.00685309
498	0.00491719
510	0.00483975
522	0.00286513
534	0.00518821
546	0.00522693
558	0.00398795
570	0.00569155
582	0.00503334
594	0.00290385
606	0.00363949
618	0.00437513
630	0.00464616
642	0.00445257
654	0.0038718
666	0.00619488
678	0.0049559
690	0.00518821
702	0.00205205
714	0.00480103
726	0.00325231
738	0.00476231
750	0.0058077
762	0.00766616
774	0.0106862
786	0.013048
798	0.0166875
810	0.0207528
822	0.0236567
834	0.0259798
846	0.0235018
858	0.01963
870	0.0171134
882	0.0130092
894	0.00975694
906	0.00708539
918	0.00514949
930	0.0042977
942	0.00422026
954	0.00371693
966	0.0038718
978	0.00379436
990	0.00360077
1002	0.00321359
1014	0.0034459
1026	0.00302
1038	0.00360077
1050	0.00282641
1062	0.00321359
1074	0.00363949
1086	0.00282641
1098	0.00267154
1110	0.00321359
1122	0.00325231
1134	0.00302
1146	0.00332975
1158	0.00302
1170	0.00329103
1182	0.00298129
1194	0.00302
1206	0.00302
1218	0.00317488
1230	0.00309744
1242	0.00340718
1254	0.00336847
1266	0.00298129
1278	0.00332975
1290	0.00309744
1302	0.00340718
1314	0.00422026
1326	0.00437513
1338	0.00553667
1350	0.00762745
1362	0.0103377
1374	0.0176554
1386	0.0133964
1398	0.0252441
1410	0.0307034
1422	0.0278382
1434	0.0304323
1446	0.0376339
1458	0.0394536
1470	0.0467326
1482	0.0315552
1494	0.0377888
1506	0.0315165
1518	0.0283029
1530	0.0258636
1542	0.0221854
1554	0.0166487
1566	0.0132028
1578	0.0092536
1590	0.00762745
1602	0.00565283
1614	0.00391052
1626	0.00352334
1638	0.00313616
1650	0.00259411
1662	0.00321359
1674	0.00205205
1686	0.00243923
1698	0.00232308
1710	0.00255539
1722	0.00228436
1734	0.0023618
1746	0.00232308
1758	0.00251667
1770	0.00247795
1782	0.00220693
1794	0.00228436
1806	0.00181975
1818	0.00209077
1830	0.00205205
1842	0.00178103
1854	0.00178103
1866	0.00166487
1878	0.00162616
1890	0.00139385
1902	0.00139385
1914	0.00104539
1926	0.00120026
1938	0.00131641
1950	0.00120026
1962	0.00135513
1974	0.00100667
1986	0.00123898
1998	0.00112282
2010	0.00123898
2022	0.00120026
2034	0.00139385
2046	0.00127769
2058	0.00143257
2070	0.00135513
2082	0.00100667
2094	0.000890514
2106	0.00096795
2118	0.00096795
2130	0.000890514
2142	0.00096795
2154	0.0010841
2166	0.00100667
2178	0.00104539
2190	0.00127769
2202	0.00151
2214	0.00131641
2226	0.00158744
2238	0.00170359
2250	0.00120026
2262	0.00123898
2274	0.00100667
2286	0.000851796
2298	0.00104539
2310	0.00058077
2322	0.000890514
2334	0.0023618
2346	0.0010841
2358	0.00205205
2370	0.00209077
2382	0.00197462
2394	0.00298129
2406	0.000154872
2418	0.000271026
2430	0.000116154
2442	0.000271026
2454	0.000542052
2466	0.000348462
2478	0.000116154
2490	0.000425898
2502	0.000348462
2514	0.000309744
2526	0.000542052
2538	0.000658206
2550	0.000348462
2562	0.000813078
2574	0.00123898
2586	0.00139385
2598	0.00154872
2610	0.00224564
2622	0.00216821
2634	0.00298129
2646	0.00247795
2658	0.00298129
2670	0.00336847
2682	0.00294257
2694	0.00336847
2706	0.0034459
2718	0.00456872
2730	0.0058077
2742	0.00669821
2754	0.012351
2766	0.00940847
2778	0.0147128
2790	0.0101828
2802	0.010299
2814	0.0129705
2826	0.0179264
2838	0.0282254
2850	0.0470037
2862	0.0897096
2874	0.155375
2886	0.162538
2898	0.184917
2910	0.213181
2922	0.331039
2934	0.364646
2946	0.310286
2958	0.372932
2970	0.370028
2982	0.344513
2994	0.313422
3006	0.316442
3018	0.275943
3030	0.219183
3042	0.166952
3054	0.116502
3066	0.0780168
3078	0.0464616
3090	0.026367
3102	0.0155646
3114	0.00998924
3126	0.00662078
3138	0.00549796
3150	0.00491719
3162	0.00406539
3174	0.0038718
3186	0.00445257
3198	0.0038718
3210	0.00468488
3222	0.00460744
3234	0.00325231
3246	0.00406539
3258	0.00371693
3270	0.00290385
3282	0.00255539
3294	0.00158744
3306	0.00185846
3318	0.00158744
3330	0.000619488
3342	0.00135513
3354	0.000851796
3366	0.000929232
3378	0.000696924
3390	0.00112282
3402	0.00123898
3414	0.00189718
3426	0.00096795
3438	0.00100667
3450	0.0010841
3462	0.000813078
3474	0.00131641
3486	0.00112282
3498	0.000890514
3510	0.000658206
3522	0.00104539
3534	0.000851796
3546	0.000348462
3558	0.00100667
3570	0.000503334
3582	0.000929232
3594	0.00096795
3606	0.000696924
3618	0.000696924
3630	0.00096795
3642	0.00174231
3654	0.000542052
3666	0.00185846
3678	0.00096795
3690	0.00224564
3702	0.000890514
3714	0.00220693
3726	0.00309744
3738	0.00267154
3750	0.0027877
3762	0.0027877
3774	0.00302
3786	0.00325231
3798	0.000813078
3810	0.00282641
3822	0.00185846
3834	0.00154872
3846	0.00178103
3858	0.000348462
3870	0.000619488
3882	0.00143257
3894	0.00185846
3906	0.00123898
3918	0.000309744
3930	0.00127769
3942	0.00224564
3954	0.00205205
3966	0.00205205
