Infrared Spectrum: 1-Nitropropane
Formula: C 3 H 7 N O 2
CAS: 108-03-2
State: gas
Instrument: HP-GC/MS/IRD
Origin: NIST Mass Spectrometry Data Center
1/CM	ABSORBANCE
550	0.0001309
562	0.000196
574	0.0003346
586	0.0003409
598	0.0004368
610	0.0003458
622	0.0004263
634	0.0003465
646	0.0002548
658	0.0001953
670	0.0001624
682	0.0001169
694	0.0001498
706	0.0001911
718	0.0002989
730	0.0003304
742	0.0002849
754	0.0002604
766	0.000161
778	0.0003143
790	0.0004711
802	0.0005215
814	0.0003521
826	0.0002093
838	0.0001323
850	0.0001372
862	0.0001603
874	0.0002422
886	0.0002485
898	0.0002457
910	0.0002401
922	0.000126
934	0.0001246
946	3.78e-05
958	7.21e-05
970	2.24e-05
982	7.49e-05
994	2.17e-05
1006	3.92e-05
1018	6.79e-05
1030	0.0001274
1042	8.82e-05
1054	0.0001519
1066	0.0001743
1078	3.85e-05
1090	0.0001498
1102	0.0001722
1114	0.0002163
1126	0.0002646
1138	0.0002394
1150	0.0002408
1162	0.0002191
1174	0.0001988
1186	0.0002296
1198	0.000308
1210	0.0003934
1222	0.0004123
1234	0.000434
1246	0.0003682
1258	0.0003024
1270	0.0002751
1282	0.0002849
1294	0.0003024
1306	0.0003311
1318	0.0004172
1330	0.0005943
1342	0.0008386
1354	0.0011739
1366	0.0017003
1378	0.0020692
1390	0.0018403
1402	0.001008
1414	0.0005964
1426	0.0006944
1438	0.00084
1450	0.0009723
1462	0.0008197
1474	0.0006384
1486	0.0005523
1498	0.0004977
1510	0.0006573
1522	0.0011914
1534	0.0023604
1546	0.0044429
1558	0.0064603
1570	0.006958
1582	0.0064897
1594	0.0039137
1606	0.0016415
1618	0.0006419
1630	0.0002905
1642	0.0002184
1654	0.000154
1666	0.0001113
1678	0.0001106
1690	6.44e-05
1702	8.26e-05
1714	6.37e-05
1726	7.35e-05
1738	7.07e-05
1750	7.98e-05
1762	6.93e-05
1774	5.74e-05
1786	5.04e-05
1798	5.67e-05
1810	6.37e-05
1822	6.51e-05
1834	6.51e-05
1846	5.81e-05
1858	7.14e-05
1870	6.65e-05
1882	5.53e-05
1894	5.04e-05
1906	4.27e-05
1918	7e-05
1930	3.29e-05
1942	4.97e-05
1954	5.74e-05
1966	5.25e-05
1978	5.39e-05
1990	5.04e-05
2002	4.2e-05
2014	5.32e-05
2026	3.08e-05
2038	5.18e-05
2050	4.48e-05
2062	4.48e-05
2074	4.9e-05
2086	4.62e-05
2098	4.76e-05
2110	3.85e-05
2122	5.32e-05
2134	4.06e-05
2146	3.57e-05
2158	5.74e-05
2170	3.85e-05
2182	6.72e-05
2194	4.13e-05
2206	6.51e-05
2218	7.21e-05
2230	8.96e-05
2242	9.17e-05
2254	0.0001064
2266	0.0001344
2278	0.000161
2290	0.0001456
2302	0.0001008
2314	5.18e-05
2326	3.78e-05
2338	7.14e-05
2350	6.09e-05
2362	6.58e-05
2374	5.39e-05
2386	6.02e-05
2398	6.44e-05
2410	2.73e-05
2422	4.34e-05
2434	4.9e-05
2446	5.39e-05
2458	6.16e-05
2470	6.93e-05
2482	4.97e-05
2494	6.86e-05
2506	1.4e-05
2518	3.22e-05
2530	4.83e-05
2542	2.73e-05
2554	2.59e-05
2566	3.08e-05
2578	4.83e-05
2590	3.5e-05
2602	4.2e-05
2614	5.39e-05
2626	2.31e-05
2638	7e-07
2650	3.71e-05
2662	2.59e-05
2674	2.03e-05
2686	4.48e-05
2698	2.66e-05
2710	4.83e-05
2722	7.7e-05
2734	8.26e-05
2746	7.07e-05
2758	0.0001078
2770	8.33e-05
2782	8.19e-05
2794	9.38e-05
2806	9.17e-05
2818	9.59e-05
2830	9.45e-05
2842	0.0001484
2854	0.0002282
2866	0.0003017
2878	0.0004788
2890	0.0006013
2902	0.0006671
2914	0.0007056
2926	0.0008435
2938	0.0010458
2950	0.0012208
2962	0.0013328
2974	0.001554
2986	0.0015715
2998	0.0012628
3010	0.0008043
3022	0.0004536
3034	0.0002905
3046	0.0002233
3058	0.0001484
3070	9.45e-05
3082	6.72e-05
3094	0.0001197
3106	6.23e-05
3118	0.0001036
3130	9.38e-05
3142	6.37e-05
3154	7.28e-05
3166	3.57e-05
3178	7.7e-05
3190	5.25e-05
3202	2.87e-05
3214	6.16e-05
3226	7.84e-05
3238	8.26e-05
3250	5.04e-05
3262	4.83e-05
3274	5.88e-05
3286	9.8e-06
3298	6.86e-05
3310	8.68e-05
3322	6.93e-05
3334	9.24e-05
3346	8.47e-05
3358	7.84e-05
3370	8.68e-05
3382	8.4e-05
3394	1.75e-05
3406	0.0001001
3418	4.41e-05
3430	0
3442	1.68e-05
3454	5.11e-05
3466	8.26e-05
3478	7.98e-05
3490	0.0001176
3502	5.95e-05
3514	8.33e-05
3526	9.24e-05
3538	5.53e-05
3550	6.65e-05
3562	8.54e-05
3574	0.0001344
3586	9.03e-05
3598	3.15e-05
3610	1.26e-05
3622	6.23e-05
3634	4.62e-05
3646	9.38e-05
3658	9.66e-05
3670	0.0001638
3682	4.41e-05
3694	0.0001099
3706	0.0001365
3718	0.0001323
3730	3.29e-05
3742	5.18e-05
3754	5.67e-05
3766	0.0001288
3778	8.47e-05
3790	8.82e-05
3802	9.45e-05
3814	6.58e-05
3826	0.0001274
3838	8.4e-05
