Infrared Spectrum: Pentane, 1-chloro-
Formula: C 5 H 11 Cl
CAS: 543-59-9
State: gas
Origin: Sadtler Research Labs Under US-EPA Contract
1/CM	ABSORBANCE
450	0
462	0.019347
474	0.0218621
486	0.0223458
498	0.0297944
510	0.0168319
522	0.0156711
534	0.0205078
546	0.0185731
558	0.0202176
570	0.0197339
582	0.020798
594	0.0232164
606	0.0251511
618	0.0267956
630	0.0285368
642	0.0484642
654	0.102733
666	0.126626
678	0.0723578
690	0.0415961
702	0.0437242
714	0.0634582
726	0.1185
738	0.200435
750	0.168803
762	0.0962513
774	0.0503022
786	0.0426601
798	0.0432405
810	0.0308585
822	0.0303748
834	0.0340507
846	0.040532
858	0.0379201
870	0.0323095
882	0.0299878
894	0.0323095
906	0.0360822
918	0.045272
930	0.0559128
942	0.0479806
954	0.0318258
966	0.0276662
978	0.0284401
990	0.0296976
1002	0.0286336
1014	0.0340507
1026	0.0432405
1038	0.0443046
1050	0.0296976
1062	0.0247642
1074	0.0247642
1086	0.0239903
1098	0.0262152
1110	0.0260217
1122	0.0209915
1134	0.0179927
1146	0.017509
1158	0.017896
1170	0.0191535
1182	0.0213784
1194	0.0209915
1206	0.0231197
1218	0.0264087
1230	0.0362756
1242	0.0374364
1254	0.0417895
1266	0.07555
1278	0.120048
1290	0.140072
1302	0.138911
1314	0.130012
1326	0.0962513
1338	0.0725512
1350	0.0622006
1362	0.0473034
1374	0.0498185
1386	0.0603626
1398	0.0478838
1410	0.0342442
1422	0.0383071
1434	0.0658765
1446	0.12769
1458	0.169963
1470	0.14133
1482	0.090157
1494	0.0465295
1506	0.0280531
1518	0.0216686
1530	0.0194437
1542	0.0187666
1554	0.0169286
1566	0.0156711
1578	0.0156711
1590	0.0151874
1602	0.0153809
1614	0.0143168
1626	0.0144135
1638	0.0137364
1650	0.0141233
1662	0.0143168
1674	0.0145103
1686	0.0141233
1698	0.0140266
1710	0.0135429
1722	0.0139298
1734	0.0135429
1746	0.0135429
1758	0.0132527
1770	0.0133494
1782	0.0133494
1794	0.0123821
1806	0.0123821
1818	0.0123821
1830	0.0123821
1842	0.0123821
1854	0.0123821
1866	0.0129625
1878	0.0126723
1890	0.0126723
1902	0.0124788
1914	0.0124788
1926	0.0125755
1938	0.0118984
1950	0.0121886
1962	0.0124788
1974	0.0122853
1986	0.0118017
1998	0.0118017
2010	0.0118984
2022	0.0122853
2034	0.0119951
2046	0.0121886
2058	0.0117049
2070	0.0118017
2082	0.0123821
2094	0.0123821
2106	0.0129625
2118	0.0128658
2130	0.0123821
2142	0.0130592
2154	0.0129625
2166	0.0132527
2178	0.0137364
2190	0.0132527
2202	0.013156
2214	0.0126723
2226	0.013156
2238	0.013156
2250	0.0132527
2262	0.0135429
2274	0.0133494
2286	0.0140266
2298	0.0145103
2310	0.0148005
2322	0.0138331
2334	0.0136396
2346	0.0161547
2358	0.0134462
2370	0.0149939
2382	0.0149939
2394	0.0134462
2406	0.0136396
2418	0.0136396
2430	0.0130592
2442	0.012769
2454	0.0124788
2466	0.0122853
2478	0.0121886
2490	0.0118017
2502	0.0116082
2514	0.0110278
2526	0.0116082
2538	0.0117049
2550	0.0114147
2562	0.0116082
2574	0.0115115
2586	0.0115115
2598	0.0119951
2610	0.0137364
2622	0.0152841
2634	0.0169286
2646	0.0168319
2658	0.0174123
2670	0.0182829
2682	0.0191535
2694	0.0183797
2706	0.0177992
2718	0.0180894
2730	0.0220556
2742	0.0250544
2754	0.0257315
2766	0.0236033
2778	0.0239903
2790	0.0278597
2802	0.0331801
2814	0.0376299
2826	0.0493348
2838	0.0799998
2850	0.145586
2862	0.257315
2874	0.373591
2886	0.418379
2898	0.349794
2910	0.348053
2922	0.487061
2934	0.70278
2946	0.84024
2958	0.850397
2970	0.96735
2982	0.682465
2994	0.314195
3006	0.187279
3018	0.0963481
3030	0.0584279
3042	0.0444014
3054	0.0352115
3066	0.0304715
3078	0.0266021
3090	0.0243772
3102	0.0230229
3114	0.0225393
3126	0.0200241
3138	0.0189601
3150	0.0198307
3162	0.0209915
3174	0.0206046
3186	0.0199274
3198	0.0209915
3210	0.0183797
3222	0.0185731
3234	0.0177992
3246	0.0156711
3258	0.0158645
3270	0.0154776
3282	0.0157678
3294	0.0130592
3306	0.0134462
3318	0.0118017
3330	0.0119951
3342	0.0136396
3354	0.013156
3366	0.0112213
3378	0.0125755
3390	0.0108343
3402	0.0122853
3414	0.0112213
3426	0.0124788
3438	0.0118984
3450	0.0135429
3462	0.0125755
3474	0.0125755
3486	0.0118984
3498	0.0115115
3510	0.0130592
3522	0.0125755
3534	0.0121886
3546	0.0126723
3558	0.0132527
3570	0.013156
3582	0.0118017
3594	0.0151874
3606	0.013156
3618	0.0134462
3630	0.0139298
3642	0.0136396
3654	0.0148972
3666	0.0154776
3678	0.016058
3690	0.0139298
3702	0.0115115
3714	0.0139298
3726	0.0107376
3738	0.0124788
3750	0.0116082
3762	0.0144135
3774	0.0122853
3786	0.0114147
3798	0.013156
3810	0.0125755
3822	0.0133494
3834	0.0110278
3846	0.0117049
3858	0.0126723
3870	0.0115115
3882	0.013156
3894	0.012769
3906	0.0105441
3918	0.0167352
3930	0.0123821
3942	0.0126723
3954	0.0197339
3966	0.0141233
