Infrared Spectrum: 1-Propanol, 2,3-dibromo-
Formula: C 3 H 6 Br 2 O
CAS: 96-13-9
State: gas
Origin: Sadtler Research Labs Under US-EPA Contract
1/CM	ABSORBANCE
450	0.044558
462	0.0564905
474	0.082319
486	0.0899467
498	0.0718969
510	0.0556597
522	0.080582
534	0.187144
546	0.363185
558	0.251488
570	0.3002
582	0.36243
594	0.322857
606	0.308432
618	0.1447
630	0.0802799
642	0.0782408
654	0.113963
666	0.0969702
678	0.0897201
690	0.0369303
702	0.0147268
714	0.0194847
726	0.0220524
738	0.00725011
750	0.00407819
762	0.00158596
774	0.00271879
786	0.00173701
798	0.00415371
810	0.0104976
822	0.0298312
834	0.0465971
846	0.046295
858	0.0482586
870	0.070311
882	0.110489
894	0.104145
906	0.0790715
918	0.0512794
930	0.0684985
942	0.191071
954	0.366961
966	0.313945
978	0.117361
990	0.0799778
1002	0.114038
1014	0.171586
1026	0.266442
1038	0.460231
1050	0.614296
1062	0.719574
1074	0.727277
1086	0.628343
1098	0.546855
1110	0.302617
1122	0.170529
1134	0.263572
1146	0.291137
1158	0.206024
1170	0.236535
1182	0.177628
1194	0.200586
1206	0.43916
1218	0.599418
1230	0.33849
1242	0.285926
1254	0.302692
1266	0.185407
1278	0.106637
1290	0.113812
1302	0.132239
1314	0.136997
1326	0.142888
1338	0.126499
1350	0.145531
1362	0.20187
1374	0.273012
1386	0.356841
1398	0.230116
1410	0.0928165
1422	0.111773
1434	0.182008
1446	0.174154
1458	0.180875
1470	0.146135
1482	0.044709
1494	0.0195602
1506	0.0219769
1518	0.0122346
1530	0.00860951
1542	0.00566415
1554	0.0106486
1566	0.00649489
1578	0.00498445
1590	0.00717459
1602	0.0075522
1614	0.00800533
1626	0.00483341
1638	0.00347401
1650	0.00317192
1662	0.0068725
1674	0.00672146
1686	0.00528654
1698	0.00762772
1710	0.00951577
1722	0.00815638
1734	0.0141981
1746	0.0109507
1758	0.0141226
1770	0.0132919
1782	0.00966682
1794	0.00747668
1806	0.00558863
1818	0.00558863
1830	0.00453132
1842	0.00385162
1854	0.00400267
1866	0.00490893
1878	0.00392714
1890	0.0051355
1902	0.00483341
1914	0.00468236
1926	0.00468236
1938	0.00460684
1950	0.00468236
1962	0.0051355
1974	0.00453132
1986	0.00468236
1998	0.00589072
2010	0.0075522
2022	0.00626833
2034	0.00604176
2046	0.00679698
2058	0.00808085
2070	0.00770324
2082	0.00808085
2094	0.00921368
2106	0.0104976
2118	0.012008
2130	0.011857
2142	0.00989338
2154	0.00725011
2166	0.00521102
2178	0.00475789
2190	0.00475789
2202	0.00505997
2214	0.00558863
2226	0.00596624
2238	0.00551311
2250	0.00589072
2262	0.00740116
2274	0.00732563
2286	0.00604176
2298	0.00664594
2310	0.00626833
2322	0.00551311
2334	0.00317192
2346	0.00438028
2358	0.00453132
2370	0.00166148
2382	0.00453132
2394	0.00785429
2406	0.00777877
2418	0.00762772
2430	0.00747668
2442	0.0075522
2454	0.00808085
2466	0.00808085
2478	0.00672146
2490	0.00536206
2502	0.0044558
2514	0.0037761
2526	0.00475789
2538	0.00407819
2550	0.00362506
2562	0.0051355
2574	0.00604176
2586	0.00362506
2598	0.00324745
2610	0.00203909
2622	0.00196357
2634	0.00354953
2646	0.00475789
2658	0.00490893
2670	0.00604176
2682	0.00974234
2694	0.00913816
2706	0.0101199
2718	0.0117814
2730	0.0154065
2742	0.0175966
2754	0.0175966
2766	0.0160862
2778	0.0151799
2790	0.012159
2802	0.0138205
2814	0.0182763
2826	0.0235629
2838	0.0317192
2850	0.0380631
2862	0.0632119
2874	0.160182
2886	0.234269
2898	0.153234
2910	0.0971213
2922	0.14402
2934	0.242577
2946	0.27339
2958	0.247259
2970	0.215238
2982	0.139112
2994	0.107392
3006	0.0333052
3018	0.0129898
3030	0.011857
3042	0.00853399
3054	0.00634385
3066	0.00490893
3078	0.00468236
3090	0.00226566
3102	0.00196357
3114	0.00166148
3126	0.00219014
3138	0.0024167
3150	0.00317192
3162	0.00286984
3174	0.00249223
3186	0.00196357
3198	0.00188805
3210	0.00339849
3222	0.00256775
3234	0.0030964
3246	0.00354953
3258	0.00641937
3270	0.00928921
3282	0.00989338
3294	0.00770324
3306	0.00732563
3318	0.0089116
3330	0.00694802
3342	0.00490893
3354	0.00528654
3366	0.00453132
3378	0.00611728
3390	0.00611728
3402	0.0051355
3414	0.00573967
3426	0.00725011
3438	0.00672146
3450	0.00709907
3462	0.0068725
3474	0.00725011
3486	0.00702355
3498	0.0122346
3510	0.012008
3522	0.0117059
3534	0.0106486
3546	0.0132163
3558	0.0136695
3570	0.013896
3582	0.0199378
3594	0.0345136
3606	0.126122
3618	0.399511
3630	0.235629
3642	0.105127
3654	0.11857
3666	0.134505
3678	0.0953088
3690	0.0502977
3702	0.0337583
3714	0.0240915
3726	0.0216748
3738	0.018956
3750	0.0157086
3762	0.0131408
3774	0.00906264
3786	0.00717459
3798	0.00626833
3810	0.00438028
3822	0.00634385
3834	0.00415371
3846	0.00611728
3858	0.00725011
3870	0.00634385
3882	0.0104976
3894	0.0115549
3906	0.00785429
3918	0.00430475
3930	0.00876055
3942	0.0129143
3954	0.0148023
3966	0.0159351
