Infrared Spectrum: 1-Bromo-3-methylbutane
Formula: C5 H11 Br
CAS: 107-82-4
State: SOLUTION (10% CCl4 FOR 3800-1340, 10% CS2 FOR 1340-430)
Class: COBLENTZ III
Instrument: DOW KBr FOREPRISM-GRATING
Instrument parameters: BLAZED AT 3.5, 12.0, 20.0 MICRON AND CHANGED AT 5.0, 7.5, 14.9 MICRON
Sampling: TRANSMISSION
Path length: 0.0117 CM, 0.0110 CM
Resolution: 2
Origin: DOW CHEMICAL COMPANY
1/CM	TRANSMITTANCE
3802	0.9238
3793	0.9253
3784	0.9247
3775	0.9246
3766	0.926
3757	0.9261
3748	0.9261
3739	0.9265
3730	0.9276
3721	0.9277
3712	0.9282
3703	0.9293
3694	0.9281
3685	0.9272
3676	0.9277
3667	0.9283
3658	0.9289
3649	0.9287
3640	0.9284
3631	0.9294
3622	0.929
3613	0.9286
3604	0.9285
3595	0.9285
3586	0.9286
3577	0.9286
3568	0.9266
3559	0.9255
3550	0.9252
3541	0.9237
3532	0.922
3523	0.9182
3514	0.9152
3505	0.9123
3496	0.9096
3487	0.9072
3478	0.9049
3469	0.9018
3460	0.8971
3451	0.8926
3442	0.8887
3433	0.8844
3424	0.8802
3415	0.8767
3406	0.8737
3397	0.8711
3388	0.8726
3379	0.875
3370	0.8797
3361	0.882
3352	0.8855
3343	0.8893
3334	0.8928
3325	0.8959
3316	0.8992
3307	0.9023
3298	0.9042
3289	0.9059
3280	0.9074
3271	0.9088
3262	0.9088
3253	0.9087
3244	0.9073
3235	0.9069
3226	0.9045
3217	0.905
3208	0.9026
3199	0.9024
3190	0.8999
3181	0.899
3172	0.899
3163	0.9022
3154	0.9041
3145	0.9044
3136	0.9074
3127	0.9072
3118	0.9072
3109	0.9065
3100	0.9082
3091	0.9103
3082	0.905
3073	0.9079
3064	0.9029
3055	0.8999
3046	0.8967
3037	0.8952
3028	0.8777
3019	0.8464
3010	0.7278
3001	0.7362
2992	0.7523
2983	0.7093
2974	0.41
2965	0.0717
2956	0.0245
2947	0.1831
2938	0.2411
2929	0.2093
2920	0.1613
2911	0.3286
2902	0.3672
2893	0.4236
2884	0.4825
2875	0.2997
2866	0.2312
2857	0.6055
2848	0.7445
2839	0.773
2830	0.7515
2821	0.7649
2812	0.8248
2803	0.8467
2794	0.865
2785	0.8747
2776	0.887
2767	0.8992
2758	0.897
2749	0.9002
2740	0.9027
2731	0.8931
2722	0.8881
2713	0.8871
2704	0.8978
2695	0.9058
2686	0.9111
2677	0.9146
2668	0.9156
2659	0.914
2650	0.905
2641	0.907
2632	0.9119
2623	0.9152
2614	0.9174
2605	0.9176
2596	0.9169
2587	0.9157
2578	0.9151
2569	0.9155
2560	0.9186
2551	0.9245
2542	0.9276
2533	0.9273
2524	0.9266
2515	0.9256
2506	0.9246
2497	0.924
2488	0.9236
2479	0.9245
2470	0.924
2461	0.9241
2452	0.9241
2443	0.9246
2434	0.9254
2425	0.9262
2416	0.9268
2407	0.9277
2398	0.9278
2389	0.924
2380	0.9276
2371	0.9352
2362	0.9371
2353	0.9343
2344	0.9297
2335	0.9276
2326	0.929
2317	0.9261
2308	0.9201
2299	0.9175
2290	0.917
2281	0.916
2272	0.9197
2263	0.9218
2254	0.9204
2245	0.9196
2236	0.9224
2227	0.9234
2218	0.923
2209	0.9228
2200	0.9226
2191	0.9212
2182	0.9212
2173	0.924
2164	0.9241
2155	0.9254
2146	0.9264
2137	0.9273
2128	0.9282
2119	0.9285
2110	0.9287
2101	0.9289
2092	0.9291
2083	0.9291
2074	0.929
2065	0.9289
2056	0.9298
2047	0.9277
2038	0.9272
2029	0.9265
2020	0.9274
2011	0.9271
2002	0.9256
1993	0.9226
1984	0.9241
1975	0.9235
1966	0.9245
1957	0.9362
1948	0.9226
1939	0.9211
1930	0.9215
1921	0.9217
1912	0.9212
1903	0.9208
1894	0.9205
1885	0.9193
1876	0.9243
1867	0.9162
1858	0.9152
1849	0.9175
1840	0.9161
1831	0.9167
1822	0.9169
1813	0.9219
1804	0.9217
1795	0.9212
1786	0.9209
1777	0.9198
1768	0.9184
1759	0.9196
1750	0.921
1741	0.9218
1732	0.9246
1723	0.9226
1714	0.9186
1705	0.9175
1696	0.9218
1687	0.9147
1678	0.9095
1669	0.9102
1660	0.9038
1651	0.9054
1642	0.8892
1633	0.8997
1624	0.9076
1615	0.9072
1606	0.9025
1597	0.8852
1588	0.8403
1579	0.8344
1570	0.8205
1561	0.7732
1552	0.7522
1543	0.7801
1534	0.816
1525	0.8355
1516	0.8556
1507	0.8609
1498	0.8498
1489	0.835
1480	0.7659
1471	0.2761
1462	0.4035
1453	0.5751
1444	0.6797
1435	0.7415
1426	0.7415
1417	0.8539
1408	0.8744
1399	0.8624
1390	0.458
1381	0.7961
1372	0.4303
1363	0.7909
1354	0.8264
1345	0.7537
1336	0.8143
1327	0.8489
1318	0.8618
1309	0.8524
1300	0.7266
1291	0.8286
1282	0.8307
1273	0.7506
1264	0.1908
1255	0.79
1246	0.8529
1237	0.8596
1228	0.7676
1219	0.3646
1210	0.8165
1201	0.86
1192	0.8533
1183	0.7937
1174	0.8407
1165	0.7676
1156	0.8793
1147	0.9158
1138	0.9293
1129	0.9344
1120	0.9335
1111	0.9331
1102	0.9313
1093	0.9358
1084	0.9332
1075	0.9245
1066	0.9276
1057	0.9311
1048	0.9348
1039	0.9192
1030	0.9164
1021	0.7903
1012	0.8833
1003	0.924
994	0.9345
985	0.9376
976	0.9351
967	0.9249
958	0.9032
949	0.8926
940	0.9225
931	0.9222
922	0.8309
913	0.9022
904	0.9304
895	0.902
886	0.7914
877	0.8726
868	0.8405
859	0.7371
850	0.8996
841	0.9341
832	0.9357
823	0.9278
814	0.9437
805	0.9521
796	0.9496
787	0.9499
778	0.9461
769	0.9298
760	0.8924
751	0.8286
742	0.9056
733	0.9356
724	0.9417
715	0.9413
706	0.9424
697	0.9446
688	0.942
679	0.935
670	0.9149
661	0.8643
652	0.7221
643	0.6953
634	0.8223
625	0.9297
616	0.956
607	0.9604
598	0.9616
589	0.9553
580	0.9151
571	0.7606
562	0.7406
553	0.9142
544	0.9452
535	0.955
526	0.957
517	0.9536
508	0.9441
499	0.9347
490	0.9239
481	0.8654
472	0.8733
463	0.8771
454	0.8744
