Infrared Spectrum: Butane, 1-bromo-3-methyl-
Formula: C 5 H 11 Br
CAS: 107-82-4
State: gas
Origin: Sadtler Research Labs Under US-EPA Contract
1/CM	ABSORBANCE
450	0
462	0.00360135
474	0.00923254
486	0.00792296
498	0.00602407
510	0.00425614
522	0.0037323
534	0.00471449
546	0.0106076
558	0.0303823
570	0.0394838
582	0.0224593
594	0.00589311
606	0.00510736
618	0.0113279
630	0.0204949
642	0.0428887
654	0.0600442
666	0.0334598
678	0.0142089
690	0.00792296
702	0.00510736
714	0.00543476
726	0.00517284
738	0.0116553
750	0.0153221
762	0.0104112
774	0.00805392
786	0.00484545
798	0.00550024
810	0.00582763
822	0.00720269
834	0.00890514
846	0.0110005
858	0.0277631
870	0.024882
882	0.0183341
894	0.0149292
906	0.0093635
918	0.0156495
930	0.0130958
942	0.00890514
954	0.00949446
966	0.00680982
978	0.00504188
990	0.00543476
1002	0.00739913
1014	0.0131613
1026	0.0150602
1038	0.00942898
1050	0.00726817
1062	0.00563119
1074	0.00563119
1086	0.00582763
1098	0.00569667
1110	0.00726817
1122	0.00746461
1134	0.00798844
1146	0.0115898
1158	0.0246856
1170	0.03896
1182	0.0289417
1194	0.0231141
1206	0.0339836
1218	0.0937004
1230	0.0736639
1242	0.0279595
1254	0.0526451
1266	0.129452
1278	0.0961887
1290	0.0350967
1302	0.0381743
1314	0.0261261
1326	0.0175484
1338	0.0268464
1350	0.0449841
1362	0.0450496
1374	0.0561155
1386	0.0726162
1398	0.0521868
1410	0.0163697
1422	0.020364
1434	0.0356861
1446	0.0566393
1458	0.0787712
1470	0.0904265
1482	0.0618122
1494	0.0253404
1506	0.0146018
1518	0.00792296
1530	0.00510736
1542	0.0102147
1554	0.00523832
1566	0.00451805
1578	0.00595859
1590	0.00340491
1602	0.00353587
1614	0.00314299
1626	0.00412518
1638	0.00563119
1650	0.00477997
1662	0.00451805
1674	0.00491093
1686	0.00857775
1698	0.00726817
1710	0.00379778
1722	0.0037323
1734	0.00720269
1746	0.00477997
1758	0.00425614
1770	0.00445257
1782	0.00307751
1794	0.00353587
1806	0.00130958
1818	0.0012441
1830	0.00189889
1842	0.00150602
1854	0.00130958
1866	0.000785748
1878	0.00130958
1890	0.0012441
1902	0.000720269
1914	0.000785748
1926	0.000720269
1938	0.000982185
1950	0.0012441
1962	0.00117862
1974	0.00111314
1986	0.000589311
1998	0.00065479
2010	0.00065479
2022	0.00111314
2034	0.0015715
2046	0.0015715
2058	0.00111314
2070	0.00163697
2082	0.00104766
2094	0.00117862
2106	0.00111314
2118	0.00104766
2130	0.00104766
2142	0.000589311
2154	0.00104766
2166	0.00065479
2178	0.00144054
2190	0.000982185
2202	0.00104766
2214	0.00104766
2226	0.000982185
2238	0.000982185
2250	0.000916706
2262	0.00150602
2274	0.00150602
2286	0.00137506
2298	0.00144054
2310	0.000785748
2322	0.000392874
2334	0.000392874
2346	0.000458353
2358	0.000851227
2370	0.000982185
2382	0.00229176
2394	0.00235724
2406	0.00137506
2418	0.00176793
2430	0.00163697
2442	0.00144054
2454	0.00183341
2466	0.0012441
2478	0.00137506
2490	0.00130958
2502	0.0012441
2514	0.00130958
2526	0.000720269
2538	0.000720269
2550	0.000785748
2562	0.00130958
2574	0.00130958
2586	0.00176793
2598	0.0028156
2610	0.00288108
2622	0.00340491
2634	0.00386326
2646	0.00379778
2658	0.00399422
2670	0.00379778
2682	0.00340491
2694	0.00327395
2706	0.00392874
2718	0.00484545
2730	0.00739913
2742	0.00883967
2754	0.00759556
2766	0.00707173
2778	0.00739913
2790	0.00838131
2802	0.0105421
2814	0.0144709
2826	0.0222629
2838	0.0366682
2850	0.0447876
2862	0.0643004
2874	0.149358
2886	0.215426
2898	0.170573
2910	0.159376
2922	0.194604
2934	0.258969
2946	0.303888
2958	0.397588
2970	0.65479
2982	0.358956
2994	0.104046
3006	0.0489783
3018	0.0474068
3030	0.0320192
3042	0.0145363
3054	0.00962541
3066	0.00825035
3078	0.00792296
3090	0.00661338
3102	0.00622051
3114	0.00569667
3126	0.00569667
3138	0.00582763
3150	0.00661338
3162	0.00667886
3174	0.00766104
3186	0.00720269
3198	0.00641694
3210	0.0053038
3222	0.00386326
3234	0.00229176
3246	0.00229176
3258	0.00229176
3270	0.00144054
3282	0.00183341
3294	0.00189889
3306	0.00196437
3318	0.00196437
3330	0.00235724
3342	0.00307751
3354	0.00268464
3366	0.00307751
3378	0.0024882
3390	0.00189889
3402	0.00189889
3414	0.00202985
3426	0.00104766
3438	0.00150602
3450	0.00137506
3462	0.00117862
3474	0.00104766
3486	0.00104766
3498	0.00117862
3510	0.00150602
3522	0.00104766
3534	0.00170245
3546	0.00320847
3558	0.00176793
3570	0.00255368
3582	0.00150602
3594	0.00170245
3606	0.00170245
3618	0.0024882
3630	0.00399422
3642	0.00170245
3654	0.00268464
3666	0.00104766
3678	0.00392874
3690	0.00327395
3702	0.000785748
3714	0.00222629
3726	0.00196437
3738	0.00261916
3750	0.00412518
3762	0.000327395
3774	0.000916706
3786	0.000916706
3798	0.00183341
3810	0.00242272
3822	0.00340491
3834	0.00294656
3846	0.00229176
3858	0.00209533
3870	0.00242272
3882	0.00189889
3894	0.00137506
3906	0.00196437
3918	0.00144054
3930	0.000916706
3942	0.000327395
3954	0.000327395
3966	0.000327395
