Infrared Spectrum: PROPYNE, 3-IODO-
Formula: C3 H3 I
CAS: 659-86-9
State: SOLUTION (10% CCl4 FOR 3800-1333, 10% CS2 FOR 1333-450 CM^-^1)
Class: COBLENTZ III
Instrument: Not specified, most likely a prism, grating, or hybrid spectrometer.
Sampling: TRANSMISSION
Path length: 0.010 CM, 0.010 CM
Resolution: 4
Origin: DOW CHEMICAL COMPANY
1/CM	TRANSMITTANCE
451.763	0.905
461.039	0.911
470.316	0.914
479.592	0.915
488.869	0.922
498.145	0.934
507.422	0.935
516.698	0.94
525.975	0.951
535.251	0.95
544.528	0.934
553.804	0.862
563.081	0.472
572.357	0.871
581.633	0.914
590.91	0.904
600.186	0.87
609.463	0.782
618.739	0.684
628.016	0.307
637.292	0.011
646.569	0.092
655.845	0.602
665.122	0.804
674.398	0.871
683.675	0.921
692.951	0.935
702.227	0.945
711.504	0.944
720.78	0.922
730.057	0.955
739.333	0.937
748.61	0.88
757.886	0.752
767.163	0.764
776.439	0.731
785.716	0.575
794.992	0.828
804.269	0.897
813.545	0.927
822.821	0.958
832.098	0.938
841.374	0.87
850.651	0.684
859.927	0.78
869.204	0.852
878.48	0.892
887.757	0.941
897.033	0.967
906.31	0.97
915.586	0.972
924.862	0.971
934.139	0.967
943.415	0.95
952.692	0.891
961.968	0.628
971.245	0.954
980.521	0.981
989.798	0.984
999.074	0.982
1008.35	0.981
1017.63	0.98
1026.9	0.977
1036.18	0.972
1045.46	0.962
1054.73	0.961
1064.01	0.958
1073.29	0.928
1082.56	0.954
1091.84	0.945
1101.12	0.941
1110.39	0.914
1119.67	0.861
1128.94	0.815
1138.22	0.808
1147.5	0.6469
1156.77	0.0312
1166.05	0.794
1175.33	0.755
1184.6	0.882
1193.88	0.931
1203.16	0.951
1212.43	0.954
1221.71	0.96
1230.99	0.95
1240.26	0.92
1249.54	0.8699
1258.82	0.725
1268.09	0.685
1277.37	0.792
1286.64	0.86
1295.92	0.907
1305.2	0.924
1314.47	0.948
1323.75	0.958
1333.03	0.985
1342.3	0.992
1351.58	1.001
1360.86	1.008
1370.13	1.002
1379.41	1.012
1388.69	1.007
1397.96	0.998
1407.24	0.955
1416.51	0.747
1425.79	0.96
1435.07	0.98
1444.34	0.981
1453.62	0.981
1462.9	0.978
1472.17	0.972
1481.45	0.941
1490.73	0.905
1500	0.864
1509.28	0.801
1518.56	0.75
1527.83	0.701
1537.11	0.6009
1546.39	0.521
1555.66	0.548
1564.94	0.647
1574.21	0.708
1583.49	0.725
1592.77	0.795
1602.04	0.8771
1611.32	0.94
1620.6	0.971
1629.87	0.994
1639.15	1.005
1648.43	1.004
1657.7	0.998
1666.98	0.998
1676.26	0.988
1685.53	0.988
1694.81	0.985
1704.09	0.98
1713.36	0.977
1722.64	0.982
1731.91	0.985
1741.19	0.984
1750.47	0.987
1759.74	0.987
1769.02	0.988
1778.3	0.988
1787.57	0.99
1796.85	0.985
1806.13	0.987
1815.4	0.987
1824.68	0.985
1833.96	0.988
1843.23	0.987
1852.51	0.987
1861.79	0.987
1871.06	0.99
1880.34	0.988
1889.61	0.991
1898.89	0.99
1908.17	0.991
1917.44	0.988
1926.72	0.982
1936	0.98
1945.27	0.977
1954.55	0.984
1963.83	0.982
1973.1	0.987
1982.38	0.985
1991.66	0.982
2000.93	0.9775
2010.21	0.977
2019.48	0.981
2028.76	0.987
2038.04	0.9845
2047.31	0.984
2056.59	0.984
2065.87	0.982
2075.14	0.982
2084.42	0.981
2093.7	0.9792
2102.97	0.977
2112.25	0.975
2121.53	0.9732
2130.8	0.9682
2140.08	0.9821
2149.36	0.987
2158.63	0.987
2167.91	0.987
2177.18	0.987
2186.46	0.9833
2195.74	0.981
2205.01	0.9754
2214.29	0.9708
2223.57	0.981
2232.84	0.981
2242.12	0.9777
2251.4	0.974
2260.67	0.9695
2269.95	0.9592
2279.23	0.954
2288.5	0.9495
2297.78	0.941
2307.06	0.9412
2316.33	0.9672
2325.61	0.9742
2334.88	0.9784
2344.16	0.981
2353.44	0.984
2362.71	0.984
2371.99	0.9812
2381.27	0.9872
2390.54	0.9883
2399.82	0.99
2409.1	0.99
2418.37	0.9897
2427.65	0.99
2436.93	0.99
2446.2	0.99
2455.48	0.988
2464.75	0.9882
2474.03	0.9882
2483.31	0.9882
2492.58	0.9901
2501.86	0.991
2511.14	0.991
2520.41	0.991
2529.69	0.991
2538.97	0.991
2548.24	0.992
2557.52	0.987
2566.8	0.987
2576.07	0.992
2585.35	0.991
2594.63	0.991
2603.9	0.992
2613.18	0.991
2622.45	0.991
2631.73	0.991
2641.01	0.991
2650.28	0.991
2659.56	0.991
2668.84	0.991
2678.11	0.9922
2687.39	0.992
2696.67	0.992
2705.94	0.992
2715.22	0.992
2724.5	0.992
2733.77	0.994
2743.05	0.992
2752.33	0.992
2761.6	0.992
2770.88	0.991
2780.15	0.991
2789.43	0.991
2798.71	0.992
2807.98	0.9912
2817.26	0.99
2826.54	0.992
2835.81	0.9905
2845.09	0.99
2854.37	0.9908
2863.64	0.992
2872.92	0.992
2882.2	0.992
2891.47	0.991
2900.75	0.9907
2910.03	0.985
2919.3	0.984
2928.58	0.987
2937.85	0.987
2947.13	0.9843
2956.41	0.9773
2965.68	0.9717
2974.96	0.9846
2984.24	0.985
2993.51	0.9827
3002.79	0.9744
3012.07	0.9176
3021.34	0.943
3030.62	0.978
3039.9	0.982
3049.17	0.981
3058.45	0.978
3067.72	0.9878
3077	0.9961
3086.28	0.998
3095.55	1
3104.83	1.002
3114.11	1.004
3123.38	1.0045
3132.66	1.007
3141.94	1.008
3151.21	1.008
3160.49	1.008
3169.77	1.008
3179.04	1.01
3188.32	1.01
3197.6	1.008
3206.87	1.0046
3216.15	1.002
3225.42	1.002
3234.7	1.001
3243.98	1
3253.25	0.993
3262.53	0.9828
3271.81	0.9712
3281.08	0.9338
3290.36	0.8364
3299.64	0.6969
3308.91	0.5481
3318.19	0.0663
3327.47	0.3168
3336.74	0.8366
3346.02	0.9343
3355.3	0.9566
3364.57	0.9743
3373.85	0.9813
3383.12	0.9903
3392.4	1.0021
3401.68	1.008
3410.95	1.008
3420.23	1.007
3429.51	1.005
3438.78	1.005
3448.06	1.005
3457.34	1.004
3466.61	1.004
3475.89	1.0036
3485.17	1.002
3494.44	1.001
3503.72	1
3513	1
3522.27	1
3531.55	1.0002
3540.82	1.002
3550.1	1.004
3559.38	1.004
3568.65	1.004
3577.93	1.002
3587.21	1.002
3596.48	1.001
3605.76	1
3615.04	1
3624.31	1
3633.59	1
3642.87	0.998
3652.14	0.998
3661.42	0.997
3670.69	1.002
3679.97	1
3689.25	1
3698.52	0.997
3707.8	1
3717.08	0.997
3726.35	1
3735.63	0.997
3744.91	1.0049
3754.18	1
3763.46	1.0022
3772.74	1.0129
3782.01	0.9775
3791.29	1.0264
