Infrared Spectrum: UREA, METHYL-
Formula: C2 H6 N2 O
CAS: 598-50-5
State: SOLID (OIL MULL)
Melting point: 98-100 C
Class: COBLENTZ III
Instrument: BAIRD (GRATING)
Instrument parameters: NaCl PRISM
Sampling: TRANSMISSION
Path length: CAPILLARY
Resolution: 2
Origin: WYANDOTTE CHEMICALS CORP.
1/CM	TRANSMITTANCE
4000	0.7472
3991	0.7498
3982	0.7511
3973	0.7525
3964	0.7539
3955	0.7553
3946	0.7565
3937	0.7571
3928	0.7575
3919	0.7578
3910	0.758
3901	0.7581
3892	0.7583
3883	0.7584
3874	0.7586
3865	0.7586
3856	0.7586
3847	0.7585
3838	0.7584
3829	0.7578
3820	0.7571
3811	0.7564
3802	0.7553
3793	0.7528
3784	0.7507
3775	0.7494
3766	0.7482
3757	0.7468
3748	0.7454
3739	0.744
3730	0.7425
3721	0.7405
3712	0.7376
3703	0.7349
3694	0.7321
3685	0.7285
3676	0.7243
3667	0.7201
3658	0.7153
3649	0.7083
3640	0.7005
3631	0.6917
3622	0.6808
3613	0.6684
3604	0.6462
3595	0.6168
3586	0.5888
3577	0.5675
3568	0.5504
3559	0.5351
3550	0.5201
3541	0.4907
3532	0.4587
3523	0.4265
3514	0.3941
3505	0.3616
3496	0.3289
3487	0.296
3478	0.2629
3469	0.2297
3460	0.1964
3451	0.1629
3442	0.1477
3433	0.145
3424	0.1441
3415	0.1444
3406	0.1465
3397	0.1504
3388	0.1544
3379	0.16
3370	0.1636
3361	0.1652
3352	0.1693
3343	0.1559
3334	0.1453
3325	0.1311
3316	0.117
3307	0.1142
3298	0.114
3289	0.1153
3280	0.1176
3271	0.1215
3262	0.1256
3253	0.13
3244	0.1344
3235	0.1396
3226	0.146
3217	0.1526
3208	0.1636
3199	0.1783
3190	0.1943
3181	0.2177
3172	0.2414
3163	0.2652
3154	0.2891
3145	0.3132
3136	0.3252
3127	0.3373
3118	0.3521
3109	0.3696
3100	0.3834
3091	0.3959
3082	0.4093
3073	0.4242
3064	0.441
3055	0.4445
3046	0.4456
3037	0.4106
3028	0.3538
3019	0.2966
3010	0.2391
3001	0.1813
2992	0.123
2983	0.0644
2974	0.0343
2965	0.0286
2956	0.0264
2947	0.0259
2938	0.0287
2929	0.0375
2920	0.0475
2911	0.0592
2902	0.0711
2893	0.0819
2884	0.0876
2875	0.0921
2866	0.0983
2857	0.1701
2848	0.2713
2839	0.3732
2830	0.4562
2821	0.4858
2812	0.5796
2803	0.6235
2794	0.6496
2785	0.6621
2776	0.6649
2767	0.6651
2758	0.6651
2749	0.665
2740	0.6658
2731	0.6718
2722	0.6831
2713	0.695
2704	0.706
2695	0.7161
2686	0.7253
2677	0.7341
2668	0.7424
2659	0.7504
2650	0.7581
2641	0.7632
2632	0.7678
2623	0.7712
2614	0.7737
2605	0.776
2596	0.7781
2587	0.7801
2578	0.7824
2569	0.7849
2560	0.7875
2551	0.7898
2542	0.7915
2533	0.7935
2524	0.7955
2515	0.7978
2506	0.8
2497	0.8024
2488	0.8061
2479	0.811
2470	0.8165
2461	0.8225
2452	0.8282
2443	0.833
2434	0.8378
2425	0.8428
2416	0.8478
2407	0.8518
2398	0.8553
2389	0.8574
2380	0.858
2371	0.8559
2362	0.8564
2353	0.8588
2344	0.8624
2335	0.8654
2326	0.8678
2317	0.8699
2308	0.8715
2299	0.8731
2290	0.8739
2281	0.8745
2272	0.8737
2263	0.8724
2254	0.8704
2245	0.8693
2236	0.8691
2227	0.8711
2218	0.8733
2209	0.8759
2200	0.8787
2191	0.8812
2182	0.8834
2173	0.8847
2164	0.8855
2155	0.8853
2146	0.8857
2137	0.8865
2128	0.8878
2119	0.8895
2110	0.8914
2101	0.8932
2092	0.8952
2083	0.8967
2074	0.896
2065	0.8935
2056	0.891
2047	0.8894
2038	0.8899
2029	0.8907
2020	0.8914
2011	0.8916
2002	0.8918
1993	0.8917
1984	0.8911
1975	0.8906
1966	0.89
1957	0.8884
1948	0.8867
1939	0.8848
1930	0.8821
1921	0.879
1912	0.8753
1903	0.8704
1894	0.8637
1885	0.8556
1876	0.8452
1867	0.8368
1858	0.83
1849	0.8218
1840	0.8125
1831	0.7957
1822	0.7732
1813	0.7528
1804	0.7358
1795	0.7118
1786	0.6643
1777	0.6425
1768	0.6154
1759	0.5795
1750	0.5293
1741	0.4598
1732	0.4167
1723	0.3507
1714	0.2818
1705	0.2448
1696	0.1632
1687	0.1552
1678	0.1206
1669	0.0993
1660	0.0969
1651	0.0931
1642	0.0904
1633	0.1155
1624	0.1326
1615	0.1073
1606	0.0757
1597	0.0559
1588	0.0505
1579	0.052
1570	0.0642
1561	0.0893
1552	0.1263
1543	0.1654
1534	0.2175
1525	0.2777
1516	0.323
1507	0.369
1498	0.3914
1489	0.3826
1480	0.2915
1471	0.2112
1462	0.2367
1453	0.327
1444	0.4176
1435	0.3849
1426	0.2923
1417	0.3805
1408	0.4479
1399	0.4494
1390	0.3795
1381	0.2448
1372	0.2144
1363	0.2084
1354	0.228
1345	0.2768
1336	0.345
1327	0.4131
1318	0.4709
1309	0.5005
1300	0.5252
1291	0.542
1282	0.5508
1273	0.5583
1264	0.5676
1255	0.5792
1246	0.5899
1237	0.596
1228	0.5974
1219	0.5901
1210	0.5752
1201	0.5509
1192	0.5201
1183	0.4464
1174	0.2884
1165	0.271
1156	0.34
1147	0.4632
1138	0.5289
1129	0.5537
1120	0.544
1111	0.5212
1102	0.5295
1093	0.5603
1084	0.5871
1075	0.6069
1066	0.6129
1057	0.6242
1048	0.6279
1039	0.6321
1030	0.6327
1021	0.6341
1012	0.6418
1003	0.6565
994	0.6869
985	0.6955
976	0.7131
967	0.7286
958	0.7433
949	0.7574
940	0.769
931	0.7818
922	0.791
913	0.7894
904	0.7665
895	0.7921
886	0.8114
877	0.8254
868	0.8294
859	0.8275
850	0.8237
841	0.8228
832	0.8215
823	0.8144
814	0.8045
805	0.7926
796	0.768
787	0.6795
778	0.5798
769	0.6858
760	0.7058
751	0.6961
742	0.6625
733	0.6212
724	0.574
715	0.5498
706	0.5619
697	0.5815
688	0.5879
679	0.591
670	0.551
661	0.5126
652	0.4703
643	0.5087
634	0.5275
