Infrared Spectrum: 1,4-Cyclohexadiene
Formula: C 6 H 8
CAS: 628-41-1
State: gas
Instrument: HP-GC/MS/IRD
Origin: NIST Mass Spectrometry Data Center
1/CM	ABSORBANCE
550	0.0007722
562	0.0005724
574	0.0015858
586	0.0037944
598	0.0062262
610	0.0107262
622	0.0066978
634	0.0073332
646	0.0085482
658	0.0070866
670	0.0049788
682	0.0027972
694	0.0011898
706	0.0003276
718	0.0001674
730	6.48e-05
742	5.94e-05
754	6.3e-05
766	8.46e-05
778	0.0002556
790	0.0002664
802	0.0004068
814	0.0002502
826	0.0001332
838	0.0001332
850	0.0002844
862	0.001116
874	0.0024084
886	0.0026568
898	0.0024984
910	0.0012402
922	0.0012402
934	0.0025506
946	0.005994
958	0.0058698
970	0.0066132
982	0.0024786
994	0.001548
1006	0.0006516
1018	0.0004464
1030	0.0003654
1042	0.000369
1054	0.0002628
1066	0.0001656
1078	0.0001332
1090	0.0001386
1102	0.0001224
1114	2.34e-05
1126	7.56e-05
1138	0.0001296
1150	0.0002052
1162	0.0002484
1174	0.0002448
1186	9.36e-05
1198	2.34e-05
1210	2.52e-05
1222	2.88e-05
1234	9e-06
1246	4.86e-05
1258	2.7e-05
1270	0.0001044
1282	0.0001134
1294	0.000216
1306	0.0003114
1318	0.0003834
1330	0.000702
1342	0.000783
1354	0.000828
1366	0.00072
1378	0.000441
1390	0.0004392
1402	0.0004968
1414	0.0009972
1426	0.0017388
1438	0.001737
1450	0.0014832
1462	0.000549
1474	0.000207
1486	0.000162
1498	0.0001404
1510	0.0001818
1522	0.0001782
1534	0.0002412
1546	0.000306
1558	0.0003168
1570	0.0003906
1582	0.0005292
1594	0.0006156
1606	0.0009486
1618	0.0016002
1630	0.0021906
1642	0.0023562
1654	0.00216
1666	0.0012834
1678	0.0008028
1690	0.0004374
1702	0.0001638
1714	0.0001206
1726	0.0001116
1738	0.0001044
1750	0.0001224
1762	3.96e-05
1774	4.14e-05
1786	3.24e-05
1798	9.36e-05
1810	9.9e-05
1822	0.0001026
1834	0.0001188
1846	0.0001314
1858	0.0001692
1870	0.00027
1882	0.0003528
1894	0.0004086
1906	0.0004104
1918	0.0003564
1930	0.0003096
1942	0.0002268
1954	0.0001566
1966	0.0001134
1978	7.2e-05
1990	5.04e-05
2002	7.38e-05
2014	6.84e-05
2026	6.12e-05
2038	5.58e-05
2050	7.38e-05
2062	3.42e-05
2074	2.34e-05
2086	2.7e-05
2098	3.24e-05
2110	4.14e-05
2122	3.78e-05
2134	7.92e-05
2146	8.64e-05
2158	0.0001134
2170	9.54e-05
2182	8.46e-05
2194	7.92e-05
2206	8.64e-05
2218	7.74e-05
2230	6.3e-05
2242	8.46e-05
2254	5.4e-05
2266	3.6e-05
2278	6.84e-05
2290	4.86e-05
2302	0.0001008
2314	0.0001152
2326	0.0001332
2338	0.0001278
2350	0.0001188
2362	0.0001548
2374	0.0001764
2386	0.0001026
2398	3.6e-05
2410	2.34e-05
2422	1.08e-05
2434	3.96e-05
2446	1.44e-05
2458	9.18e-05
2470	5.94e-05
2482	7.74e-05
2494	5.58e-05
2506	9e-05
2518	7.38e-05
2530	0.0001026
2542	5.58e-05
2554	3.96e-05
2566	2.52e-05
2578	6.12e-05
2590	8.28e-05
2602	0.0001062
2614	0.0001242
2626	0.0001584
2638	0.0001872
2650	0.000306
2662	0.000468
2674	0.0005634
2686	0.0005598
2698	0.0004338
2710	0.0004068
2722	0.0004374
2734	0.0006246
2746	0.00054
2758	0.0006984
2770	0.0008496
2782	0.0010872
2794	0.0015192
2806	0.0020088
2818	0.0054
2830	0.0099324
2842	0.0108378
2854	0.0117756
2866	0.0093816
2878	0.016983
2890	0.014472
2902	0.012384
2914	0.0075402
2926	0.0021168
2938	0.0011286
2950	0.0013986
2962	0.0019368
2974	0.0028764
2986	0.0036864
2998	0.0042696
3010	0.0079092
3022	0.015399
3034	0.018
3046	0.0173196
3058	0.0100728
3070	0.0029484
3082	0.0015732
3094	0.0012114
3106	0.0008802
3118	0.0005094
3130	0.0002826
3142	0.0001638
3154	0.0001422
3166	0.000135
3178	0.0001332
3190	4.5e-05
3202	7.56e-05
3214	6.84e-05
3226	0.0001026
3238	0.0001134
3250	0.0001782
3262	0.0002412
3274	0.0003168
3286	0.000306
3298	0.0002646
3310	0.0001062
3322	0.0001026
3334	9e-05
3346	6.66e-05
3358	7.56e-05
3370	4.5e-05
3382	7.2e-05
3394	3.42e-05
3406	6.66e-05
3418	3.42e-05
3430	1.62e-05
3442	7.74e-05
3454	2.7e-05
3466	3.78e-05
3478	7.02e-05
3490	6.12e-05
3502	7.38e-05
3514	7.02e-05
3526	7.56e-05
3538	7.2e-05
3550	8.28e-05
3562	5.76e-05
3574	8.64e-05
3586	0.0001242
3598	0.0001512
3610	0.0001296
3622	2.7e-05
3634	9.72e-05
3646	0.0001062
3658	9.18e-05
3670	0.000108
3682	7.56e-05
3694	6.12e-05
3706	0.0001206
3718	6.3e-05
3730	0.0001098
3742	0.0001098
3754	9.18e-05
3766	2.88e-05
3778	4.5e-05
3790	2.7e-05
3802	9e-05
3814	5.94e-05
3826	7.56e-05
3838	6.48e-05
