Infrared Spectrum: 1,4-CYCLOHEXADIENE
Formula: C6 H8
CAS: 628-41-1
State: LIQUID
Class: COBLENTZ
Instrument: Not specified, most likely a prism, grating, or hybrid spectrometer.
Sampling: TRANSMISSION
Path length: 0.0025 CM
Resolution: 4
Origin: ELPASO NATURAL GAS PRODUCTS COMPANY
1/CM	TRANSMITTANCE
674.159	0.612
685.092	0.675
696.024	0.731
706.957	0.758
717.89	0.79
728.823	0.807
739.755	0.822
750.688	0.831
761.621	0.84
772.554	0.844
783.486	0.848
794.419	0.841
805.352	0.841
816.285	0.852
827.217	0.86
838.15	0.863
849.083	0.861
860.016	0.857
870.948	0.83
881.881	0.5312
892.814	0.729
903.747	0.831
914.679	0.84
925.612	0.83
936.545	0.775
947.478	0.6291
958.41	0.2111
969.343	0.5628
980.276	0.752
991.209	0.802
1002.14	0.823
1013.07	0.824
1024.01	0.823
1034.94	0.82
1045.87	0.831
1056.81	0.836
1067.74	0.837
1078.67	0.839
1089.6	0.84
1100.54	0.841
1111.47	0.847
1122.4	0.851
1133.33	0.851
1144.27	0.851
1155.2	0.819
1166.13	0.833
1177.07	0.849
1188	0.845
1198.93	0.84
1209.86	0.851
1220.8	0.861
1231.73	0.865
1242.66	0.869
1253.59	0.864
1264.53	0.863
1275.46	0.871
1286.39	0.871
1297.33	0.871
1308.26	0.867
1319.19	0.86
1330.12	0.851
1341.06	0.839
1351.99	0.771
1362.92	0.779
1373.85	0.827
1384.79	0.843
1395.72	0.84
1406.65	0.7091
1417.59	0.763
1428.52	0.4803
1439.45	0.767
1450.38	0.833
1461.32	0.857
1472.25	0.865
1483.18	0.872
1494.11	0.879
1505.05	0.877
1515.98	0.876
1526.91	0.879
1537.85	0.877
1548.78	0.879
1559.71	0.873
1570.64	0.865
1581.58	0.861
1592.51	0.841
1603.44	0.82
1614.37	0.822
1625.31	0.822
1636.24	0.6412
1647.17	0.7939
1658.11	0.822
1669.04	0.79
1679.97	0.822
1690.9	0.856
1701.84	0.869
1712.77	0.873
1723.7	0.876
1734.64	0.876
1745.57	0.876
1756.5	0.879
1767.43	0.883
1778.37	0.883
1789.3	0.88
1800.23	0.883
1811.16	0.879
1822.1	0.877
1833.03	0.879
1843.96	0.879
1854.9	0.876
1865.83	0.871
1876.76	0.855
1887.69	0.845
1898.63	0.859
1909.56	0.855
1920.49	0.856
1931.42	0.86
1942.36	0.863
1953.29	0.871
1964.22	0.871
1975.16	0.871
1986.09	0.871
1997.02	0.871
2007.95	0.873
2018.89	0.8723
2029.82	0.871
2040.75	0.875
2051.68	0.875
2062.62	0.872
2073.55	0.874
2084.48	0.8753
2095.42	0.876
2106.35	0.876
2117.28	0.875
2128.21	0.875
2139.15	0.875
2150.08	0.8712
2161.01	0.87
2171.94	0.8632
2182.88	0.863
2193.81	0.8685
2204.74	0.869
2215.68	0.8662
2226.61	0.863
2237.54	0.8638
2248.47	0.8661
2259.41	0.867
2270.34	0.867
2281.27	0.8654
2292.21	0.864
2303.14	0.8637
2314.07	0.861
2325	0.8592
2335.94	0.859
2346.87	0.859
2357.8	0.859
2368.73	0.8562
2379.67	0.855
2390.6	0.8562
2401.53	0.861
2412.47	0.8626
2423.4	0.865
2434.33	0.865
2445.26	0.8649
2456.2	0.863
2467.13	0.861
2478.06	0.86
2488.99	0.8601
2499.93	0.861
2510.86	0.861
2521.79	0.861
2532.73	0.859
2543.66	0.8574
2554.59	0.859
2565.52	0.86
2576.46	0.86
2587.39	0.86
2598.32	0.8594
2609.25	0.8576
2620.19	0.859
2631.12	0.859
2642.05	0.859
2652.99	0.8527
2663.92	0.8447
2674.85	0.8213
2685.78	0.798
2696.72	0.8133
2707.65	0.8322
2718.58	0.8387
2729.51	0.8347
2740.45	0.828
2751.38	0.8321
2762.31	0.831
2773.25	0.8264
2784.18	0.818
2795.11	0.7991
2806.04	0.7823
2816.98	0.7506
2827.91	0.5738
2838.84	0.3006
2849.77	0.33
2860.71	0.47
2871.64	0.3816
2882.57	0.3432
2893.51	0.3342
2904.44	0.4248
2915.37	0.5704
2926.3	0.6962
2937.24	0.7488
2948.17	0.7684
2959.1	0.7608
2970.04	0.7028
2980.97	0.6867
2991.9	0.7038
3002.83	0.6537
3013.77	0.6318
3024.7	0.494
3035.63	0.2791
3046.56	0.3298
3057.5	0.5281
3068.43	0.6829
3079.36	0.7446
3090.3	0.7902
3101.23	0.7992
3112.16	0.7994
3123.09	0.8292
3134.03	0.8431
3144.96	0.8511
3155.89	0.8559
3166.82	0.857
3177.76	0.859
3188.69	0.859
3199.62	0.8599
3210.56	0.86
3221.49	0.86
3232.42	0.8598
3243.35	0.859
3254.29	0.8563
3265.22	0.8516
3276.15	0.851
3287.08	0.8557
3298.02	0.8583
3308.95	0.851
3319.88	0.854
3330.82	0.8599
3341.75	0.861
3352.68	0.863
3363.61	0.863
3374.55	0.863
3385.48	0.863
3396.41	0.8634
3407.34	0.861
3418.28	0.8628
3429.21	0.864
3440.14	0.864
3451.08	0.8648
3462.01	0.8611
3472.94	0.861
3483.87	0.861
3494.81	0.861
3505.74	0.861
3516.67	0.8631
3527.61	0.861
3538.54	0.861
3549.47	0.86
3560.4	0.859
3571.34	0.859
3582.27	0.8544
3593.2	0.852
3604.13	0.851
3615.07	0.851
3626	0.8512
3636.93	0.8598
3647.87	0.863
3658.8	0.8635
3669.73	0.8626
3680.66	0.861
3691.6	0.8624
3702.53	0.8635
3713.46	0.863
3724.39	0.863
3735.33	0.8616
3746.26	0.8619
3757.19	0.865
3768.13	0.863
3779.06	0.861
3789.99	0.86
3800.92	0.86
3811.86	0.859
3822.79	0.859
3833.72	0.857
3844.65	0.859
3855.59	0.86
3866.52	0.861
3877.45	0.8605
3888.39	0.86
3899.32	0.859
3910.25	0.8568
3921.18	0.851
3932.12	0.8495
3943.05	0.852
3953.98	0.855
3964.91	0.854
3975.85	0.852
3986.78	0.855
3997.71	0.855
4008.65	0.8565
4019.58	0.859
4030.51	0.859
4041.44	0.859
4052.38	0.8595
4063.31	0.8597
4074.24	0.859
4085.17	0.8623
4096.11	0.862
4107.04	0.8633
4117.97	0.864
4128.91	0.864
4139.84	0.864
4150.77	0.864
4161.7	0.864
4172.64	0.8617
4183.57	0.8595
4194.5	0.8524
4205.44	0.844
4216.37	0.841
4227.3	0.849
4238.23	0.8529
4249.17	0.8529
4260.1	0.849
4271.03	0.848
4281.96	0.8513
4292.9	0.855
4303.83	0.8568
4314.76	0.857
4325.7	0.857
4336.63	0.8571
4347.56	0.8598
4358.49	0.8621
4369.43	0.8643
4380.36	0.865
4391.29	0.8642
4402.22	0.8619
4413.16	0.861
4424.09	0.861
4435.02	0.86
4445.96	0.86
4456.89	0.859
4467.82	0.8601
4478.75	0.8671
4489.69	0.869
4500.62	0.8687
4511.55	0.8679
4522.48	0.8654
4533.42	0.864
4544.35	0.864
4555.28	0.8652
4566.22	0.8705
4577.15	0.8724
4588.08	0.865
4599.01	0.865
4609.95	0.8667
4620.88	0.868
4631.81	0.871
4642.74	0.8708
4653.68	0.8672
4664.61	0.8644
4675.54	0.864
4686.48	0.8641
4697.41	0.865
4708.34	0.865
4719.27	0.865
4730.21	0.8681
4741.14	0.869
4752.07	0.869
4763.01	0.8687
4773.94	0.865
4784.87	0.865
4795.8	0.8702
4806.74	0.871
4817.67	0.8679
4828.6	0.867
4839.53	0.867
4850.47	0.8714
4861.4	0.871
4872.33	0.8681
4883.27	0.869
4894.2	0.8714
4905.13	0.8679
4916.06	0.867
4927	0.8686
4937.93	0.8714
4948.86	0.869
4959.79	0.8671
