Infrared Spectrum: 1,4-CYCLOHEXADIENE
Formula: C6 H8
CAS: 628-41-1
State: LIQUID
Class: COBLENTZ
Instrument: Not specified, most likely a grating spectrometer.
Sampling: TRANSMISSION
Path length: 0.00234 CM
Resolution: 4
Origin: US INDUSTRIAL CHEMICALS COMPANY, CINCINNATI, OHIO
MICROMETERS	TRANSMITTANCE
2.033	0.923
2.07287	0.935
2.11274	0.936
2.15261	0.931
2.19247	0.92
2.23234	0.925
2.27221	0.876
2.31208	0.89
2.35195	0.918
2.39182	0.923
2.43168	0.901
2.47155	0.895
2.51142	0.885
2.55129	0.901
2.59116	0.91
2.63103	0.911
2.6709	0.913
2.71076	0.918
2.75063	0.908
2.7905	0.908
2.83037	0.923
2.87024	0.923
2.91011	0.93
2.94997	0.93
2.98984	0.928
3.02971	0.903
3.06958	0.896
3.10945	0.921
3.14932	0.918
3.18919	0.896
3.22905	0.721
3.26892	0.468
3.30879	0.073
3.34866	0.416
3.38853	0.576
3.4284	0.646
3.46827	0.06
3.50813	0.093
3.548	0.068
3.58787	0.578
3.62774	0.766
3.66761	0.835
3.70748	0.846
3.74734	0.751
3.78721	0.833
3.82708	0.916
3.86695	0.925
3.90682	0.926
3.94669	0.923
3.98656	0.913
4.02642	0.928
4.06629	0.92
4.10616	0.925
4.14603	0.94
4.1859	0.926
4.22577	0.883
4.26563	0.87
4.3055	0.883
4.34537	0.903
4.38524	0.928
4.42511	0.928
4.46498	0.931
4.50485	0.92
4.54471	0.926
4.58458	0.921
4.62445	0.915
4.66432	0.931
4.70419	0.936
4.74406	0.943
4.78392	0.938
4.82379	0.945
4.86366	0.933
4.90353	0.928
4.9434	0.933
4.98327	0.93
5.02314	0.928
5.063	0.935
5.10287	0.91
5.14274	0.89
5.18261	0.893
5.22248	0.875
5.26235	0.866
5.30221	0.845
5.34208	0.888
5.38195	0.925
5.42182	0.935
5.46169	0.938
5.50156	0.928
5.54143	0.915
5.58129	0.926
5.62116	0.936
5.66103	0.943
5.7009	0.93
5.74077	0.92
5.78064	0.911
5.8205	0.933
5.86037	0.913
5.90024	0.901
5.94011	0.855
5.97998	0.72
6.01985	0.746
6.05972	0.785
6.09958	0.421
6.13945	0.721
6.17932	0.78
6.21919	0.753
6.25906	0.828
6.29893	0.89
6.3388	0.891
6.37866	0.906
6.41853	0.92
6.4584	0.918
6.49827	0.921
6.53814	0.923
6.57801	0.91
6.61787	0.908
6.65774	0.925
6.69761	0.908
6.73748	0.843
6.77735	0.826
6.81722	0.88
6.85709	0.853
6.89695	0.79
6.93682	0.6
6.97669	0.155
7.01656	0.423
7.05643	0.656
7.0963	0.498
7.13616	0.746
7.17603	0.826
7.2159	0.843
7.25577	0.825
7.29564	0.79
7.33551	0.68
7.37538	0.665
7.41524	0.728
7.45511	0.81
7.49498	0.846
7.53485	0.878
7.57472	0.891
7.61459	0.908
7.65445	0.918
7.69432	0.923
7.73419	0.93
7.77406	0.93
7.81393	0.933
7.8538	0.933
7.89367	0.93
7.93353	0.936
7.9734	0.928
8.01327	0.93
8.05314	0.93
8.09301	0.921
8.13288	0.921
8.17274	0.913
8.21261	0.908
8.25248	0.9
8.29235	0.886
8.33222	0.873
8.37209	0.86
8.41196	0.866
8.45182	0.875
8.49169	0.878
8.53156	0.878
8.57143	0.866
8.6113	0.818
8.65117	0.788
8.69104	0.841
8.7309	0.876
8.77077	0.898
8.81064	0.908
8.85051	0.911
8.89038	0.913
8.93025	0.915
8.97011	0.915
9.00998	0.918
9.04985	0.918
9.08972	0.92
9.12959	0.921
9.16946	0.92
9.20933	0.916
9.24919	0.91
9.28906	0.908
9.32893	0.896
9.3688	0.896
9.40867	0.893
9.44854	0.895
9.4884	0.891
9.52827	0.883
9.56814	0.87
9.60801	0.86
9.64788	0.838
9.68775	0.833
9.72762	0.845
9.76748	0.86
9.80735	0.87
9.84722	0.873
9.88709	0.87
9.92696	0.863
9.96683	0.85
10.0067	0.82
10.0466	0.8
10.0864	0.78
10.1263	0.751
10.1662	0.706
10.206	0.663
10.2459	0.591
10.2858	0.495
10.3256	0.34
10.3655	0.135
10.4054	0.031
10.4452	0.011
10.4851	0.035
10.525	0.146
10.5649	0.315
10.6047	0.48
10.6446	0.583
10.6845	0.648
10.7243	0.736
10.7642	0.796
10.8041	0.813
10.8439	0.835
10.8838	0.848
10.9237	0.853
10.9635	0.863
11.0034	0.865
11.0433	0.851
11.0831	0.826
11.123	0.778
11.1629	0.711
11.2027	0.565
11.2426	0.33
11.2825	0.07
11.3224	0.128
11.3622	0.378
11.4021	0.631
11.442	0.731
11.4818	0.785
11.5217	0.823
11.5616	0.846
11.6014	0.865
11.6413	0.88
11.6812	0.883
11.721	0.886
11.7609	0.888
11.8008	0.893
11.8406	0.893
11.8805	0.901
11.9204	0.9
11.9602	0.898
12.0001	0.901
12.04	0.901
12.0799	0.901
12.1197	0.905
12.1596	0.901
12.1995	0.901
12.2393	0.906
12.2792	0.906
12.3191	0.911
12.3589	0.908
12.3988	0.905
12.4387	0.898
12.4785	0.9
12.5184	0.901
12.5583	0.906
12.5981	0.905
12.638	0.901
12.6779	0.908
12.7178	0.908
12.7576	0.913
12.7975	0.916
12.8374	0.916
12.8772	0.92
12.9171	0.921
12.957	0.93
12.9968	0.928
13.0367	0.93
13.0766	0.933
13.1164	0.936
13.1563	0.938
13.1962	0.936
13.236	0.938
13.2759	0.938
13.3158	0.936
13.3556	0.936
13.3955	0.941
13.4354	0.933
13.4753	0.931
13.5151	0.93
13.555	0.93
13.5949	0.928
13.6347	0.925
13.6746	0.923
13.7145	0.921
13.7543	0.913
13.7942	0.91
13.8341	0.901
13.8739	0.895
13.9138	0.89
13.9537	0.876
13.9935	0.87
14.0334	0.863
14.0733	0.86
14.1131	0.848
14.153	0.836
14.1929	0.828
14.2328	0.82
14.2726	0.811
14.3125	0.801
14.3524	0.793
14.3922	0.786
14.4321	0.78
14.472	0.765
14.5118	0.753
14.5517	0.72
14.5916	0.701
14.6314	0.668
14.6713	0.611
14.7112	0.556
14.751	0.465
14.7909	0.39
14.8308	0.356
14.8706	0.39
14.9105	0.431
14.9504	0.46
14.9903	0.473
15.0301	0.498
15.07	0.496
15.1099	0.488
15.1497	0.481
15.1896	0.48
15.2295	0.475
15.2693	0.47
15.3092	0.463
15.3491	0.461
15.3889	0.456
15.4288	0.44
15.4687	0.435
15.5085	0.421
15.5484	0.403
15.5883	0.391
15.6281	0.38
15.668	0.36
15.7079	0.348
15.7478	0.333
15.7876	0.313
15.8275	0.311
15.8674	0.291
15.9072	0.29
15.9471	0.29
15.987	0.3
