Infrared Spectrum: 1,4-CYCLOHEXADIENE
Formula: C6 H8
CAS: 628-41-1
State: SOLUTION (10% CCl4 FOR 4000-1200, 10% CS2 FOR 1200-450) VS SOLVENT
Class: COBLENTZ III
Instrument: CARY 90 (GRATING)
Instrument parameters: GRATING CHANGES: 3000, 2000, 1200 CM^-^1
Sampling: TRANSMISSION
Path length: 0.010 CM, 0.011 CM
Origin: WESTERN REGIONAL RES. USDA
1/CM	TRANSMITTANCE
4000	0.9117
3991	0.9128
3982	0.9141
3973	0.9156
3964	0.9164
3955	0.9171
3946	0.9178
3937	0.9188
3928	0.9208
3919	0.9242
3910	0.9278
3901	0.9316
3892	0.9339
3883	0.9354
3874	0.9356
3865	0.9351
3856	0.9341
3847	0.9331
3838	0.9325
3829	0.9321
3820	0.9324
3811	0.9335
3802	0.9345
3793	0.9354
3784	0.9362
3775	0.9368
3766	0.9373
3757	0.9371
3748	0.9368
3739	0.9367
3730	0.9367
3721	0.9366
3712	0.9355
3703	0.9344
3694	0.9332
3685	0.9318
3676	0.9303
3667	0.9287
3658	0.927
3649	0.9247
3640	0.9225
3631	0.9209
3622	0.9191
3613	0.918
3604	0.9185
3595	0.919
3586	0.9202
3577	0.9214
3568	0.9227
3559	0.9239
3550	0.925
3541	0.9261
3532	0.9271
3523	0.9277
3514	0.9275
3505	0.9277
3496	0.9285
3487	0.9286
3478	0.9286
3469	0.9284
3460	0.9277
3451	0.9271
3442	0.9264
3433	0.9257
3424	0.9253
3415	0.9248
3406	0.9244
3397	0.9241
3388	0.9243
3379	0.9257
3370	0.9264
3361	0.9271
3352	0.9278
3343	0.9283
3334	0.9277
3325	0.9237
3316	0.9197
3307	0.921
3298	0.9233
3289	0.9218
3280	0.919
3271	0.9165
3262	0.9181
3253	0.9214
3244	0.9248
3235	0.9275
3226	0.9302
3217	0.9318
3208	0.9325
3199	0.9331
3190	0.9331
3181	0.933
3172	0.9325
3163	0.9318
3154	0.9308
3145	0.9287
3136	0.9261
3127	0.9221
3118	0.9146
3109	0.8983
3100	0.7978
3091	0.8315
3082	0.8731
3073	0.8268
3064	0.7857
3055	0.6625
3046	0.509
3037	0.2134
3028	0.0912
3019	0.3414
3010	0.588
3001	0.6397
2992	0.6048
2983	0.724
2974	0.6978
2965	0.6771
2956	0.6433
2947	0.7848
2938	0.8005
2929	0.7958
2920	0.7712
2911	0.6761
2902	0.4885
2893	0.2717
2884	0.1109
2875	0.2673
2866	0.2134
2857	0.2204
2848	0.4177
2839	0.501
2830	0.104
2821	0.166
2812	0.6148
2803	0.7272
2794	0.8337
2785	0.8259
2776	0.8446
2767	0.8751
2758	0.8884
2749	0.8909
2740	0.8978
2731	0.8762
2722	0.8765
2713	0.9075
2704	0.9173
2695	0.8906
2686	0.8724
2677	0.8178
2668	0.8391
2659	0.8931
2650	0.9177
2641	0.9211
2632	0.9228
2623	0.9243
2614	0.9252
2605	0.9259
2596	0.926
2587	0.9261
2578	0.9261
2569	0.926
2560	0.9259
2551	0.9259
2542	0.9264
2533	0.9268
2524	0.9271
2515	0.927
2506	0.9268
2497	0.9266
2488	0.9263
2479	0.9256
2470	0.925
2461	0.9243
2452	0.9238
2443	0.9232
2434	0.9227
2425	0.9218
2416	0.921
2407	0.9197
2398	0.9171
2389	0.9146
2380	0.9124
2371	0.9117
2362	0.9114
2353	0.9113
2344	0.9121
2335	0.913
2326	0.9139
2317	0.9155
2308	0.9171
2299	0.9188
2290	0.9198
2281	0.9206
2272	0.9215
2263	0.9218
2254	0.9217
2245	0.9215
2236	0.9214
2227	0.9213
2218	0.9212
2209	0.9213
2200	0.9214
2191	0.9215
2182	0.9164
2173	0.9066
2164	0.9025
2155	0.9038
2146	0.9128
2137	0.9185
2128	0.9197
2119	0.9175
2110	0.915
2101	0.9134
2092	0.9123
2083	0.9121
2074	0.9115
2065	0.9104
2056	0.9096
2047	0.9091
2038	0.9087
2029	0.9082
2020	0.9077
2011	0.9071
2002	0.9078
1993	0.9108
1984	0.9083
1975	0.912
1966	0.9044
1957	0.8937
1948	0.8723
1939	0.8761
1930	0.8642
1921	0.8681
1912	0.8825
1903	0.8608
1894	0.8512
1885	0.8728
1876	0.8863
1867	0.9031
1858	0.9036
1849	0.904
1840	0.9055
1831	0.9038
1822	0.9
1813	0.9049
1804	0.9095
1795	0.9024
1786	0.9039
1777	0.9108
1768	0.9143
1759	0.8937
1750	0.8693
1741	0.8604
1732	0.8533
1723	0.8232
1714	0.8582
1705	0.8715
1696	0.8668
1687	0.8457
1678	0.8021
1669	0.7897
1660	0.8451
1651	0.8377
1642	0.5394
1633	0.7134
1624	0.8308
1615	0.8196
1606	0.8118
1597	0.8478
1588	0.8659
1579	0.8774
1570	0.8881
1561	0.9075
1552	0.9095
1543	0.9037
1534	0.9032
1525	0.9042
1516	0.9063
1507	0.9063
1498	0.9036
1489	0.8961
1480	0.8864
1471	0.8749
1462	0.8604
1453	0.8427
1444	0.8196
1435	0.4066
1426	0.526
1417	0.7838
1408	0.6297
1399	0.8466
1390	0.8657
1381	0.8655
1372	0.8385
1363	0.7746
1354	0.7635
1345	0.8268
1336	0.8442
1327	0.8508
1318	0.8637
1309	0.8725
1300	0.8748
1291	0.8718
1282	0.8717
1273	0.8713
1264	0.8689
1255	0.8654
1246	0.8593
1237	0.8518
1228	0.8416
1219	0.8292
1210	0.8062
1201	0.7534
1192	0.7451
1183	0.768
1174	0.7831
1165	0.7751
1156	0.7072
1147	0.7776
1138	0.8105
1129	0.822
1120	0.8288
1111	0.834
1102	0.8358
1093	0.8354
1084	0.8331
1075	0.8295
1066	0.8253
1057	0.8209
1048	0.8167
1039	0.8068
1030	0.7787
1021	0.784
1012	0.7942
1003	0.7974
994	0.7801
985	0.7405
976	0.6817
967	0.505
958	0.0228
949	0.3546
940	0.6588
931	0.7483
922	0.7839
913	0.7976
904	0.8012
895	0.7199
886	0.1706
877	0.671
868	0.7668
859	0.7808
850	0.7958
841	0.8106
832	0.8193
823	0.8228
814	0.8248
805	0.8252
796	0.8258
787	0.8251
778	0.8241
769	0.8236
760	0.8239
751	0.8236
742	0.8128
733	0.8115
724	0.783
715	0.7528
706	0.7267
697	0.7082
688	0.6849
679	0.6259
670	0.5609
661	0.5526
652	0.5264
643	0.4288
634	0.2223
625	0.0204
616	0.0169
607	0.2855
598	0.5354
589	0.6511
580	0.6978
571	0.7311
562	0.734
553	0.7255
544	0.7484
535	0.7526
526	0.7574
517	0.7624
508	0.763
499	0.7584
490	0.7471
481	0.7357
