Infrared Spectrum: 1,2-PROPANEDIOL, 2-METHYL-
Formula: C4 H10 O2
CAS: 558-43-0
State: LIQUID (NEAT)
Class: COBLENTZ III
Instrument: DOW KBr FOREPRISM-GRATING
Instrument parameters: BLAZED AT 3.5, 12.0, 20.0 MICRON, CHANGED AT 5.0, 7.5, 14.9 MICRON
Sampling: TRANSMISSION
Path length: CAPILLARY
Resolution: 4
Origin: DOW CHEMICAL COMPANY
1/CM	TRANSMITTANCE
390.371	0.798
399.072	0.787
407.772	0.775
416.473	0.765
425.174	0.76
433.874	0.744
442.575	0.726
451.276	0.707
459.976	0.678
468.677	0.681
477.378	0.695
486.079	0.707
494.779	0.699
503.48	0.685
512.181	0.669
520.881	0.648
529.582	0.628
538.283	0.636
546.983	0.631
555.684	0.605
564.385	0.529
573.085	0.537
581.786	0.571
590.487	0.578
599.187	0.575
607.888	0.575
616.589	0.572
625.29	0.571
633.99	0.57
642.691	0.571
651.392	0.574
660.092	0.579
668.793	0.591
677.494	0.602
686.194	0.614
694.895	0.625
703.596	0.638
712.296	0.651
720.997	0.666
729.698	0.681
738.398	0.695
747.099	0.697
755.8	0.623
764.501	0.432
773.201	0.595
781.902	0.729
790.603	0.764
799.303	0.787
808.004	0.81
816.705	0.831
825.405	0.842
834.106	0.84
842.807	0.857
851.507	0.876
860.208	0.884
868.909	0.885
877.609	0.865
886.31	0.761
895.011	0.673
903.711	0.397
912.412	0.318
921.113	0.65
929.814	0.706
938.514	0.794
947.215	0.853
955.916	0.865
964.616	0.824
973.317	0.636
982.018	0.563
990.718	0.738
999.419	0.767
1008.12	0.654
1016.82	0.67
1025.52	0.629
1034.22	0.406
1042.92	0.191
1051.62	0.099
1060.32	0.112
1069.02	0.246
1077.73	0.575
1086.43	0.738
1095.13	0.779
1103.83	0.786
1112.53	0.757
1121.23	0.702
1129.93	0.604
1138.63	0.474
1147.33	0.36
1156.03	0.288
1164.73	0.257
1173.43	0.297
1182.13	0.462
1190.83	0.61
1199.53	0.654
1208.24	0.655
1216.94	0.632
1225.64	0.56
1234.34	0.517
1243.04	0.537
1251.74	0.576
1260.44	0.582
1269.14	0.594
1277.84	0.632
1286.54	0.708
1295.24	0.736
1303.94	0.726
1312.64	0.707
1321.34	0.677
1330.05	0.666
1338.75	0.655
1347.45	0.616
1356.15	0.525
1364.85	0.372
1373.55	0.4
1382.25	0.342
1390.95	0.379
1399.65	0.47
1408.35	0.5
1417.05	0.529
1425.75	0.575
1434.45	0.614
1443.15	0.614
1451.85	0.593
1460.56	0.527
1469.26	0.51
1477.96	0.522
1486.66	0.723
1495.36	0.814
1504.06	0.854
1512.76	0.876
1521.46	0.891
1530.16	0.902
1538.86	0.908
1547.56	0.915
1556.26	0.919
1564.96	0.923
1573.66	0.922
1582.37	0.921
1591.07	0.915
1599.77	0.91
1608.47	0.899
1617.17	0.884
1625.87	0.868
1634.57	0.847
1643.27	0.834
1651.97	0.827
1660.67	0.827
1669.37	0.839
1678.07	0.861
1686.77	0.884
1695.47	0.902
1704.17	0.914
1712.88	0.931
1721.58	0.944
1730.28	0.949
1738.98	0.955
1747.68	0.957
1756.38	0.963
1765.08	0.965
1773.78	0.967
1782.48	0.968
1791.18	0.965
1799.88	0.963
1808.58	0.961
1817.28	0.961
1825.98	0.964
1834.68	0.964
1843.39	0.965
1852.09	0.968
1860.79	0.968
1869.49	0.968
1878.19	0.965
1886.89	0.967
1895.59	0.967
1904.29	0.968
1912.99	0.968
1921.69	0.967
1930.39	0.967
1939.09	0.965
1947.79	0.967
1956.49	0.97
1965.2	0.961
1973.9	0.96
1982.6	0.957
1991.3	0.957
2000	1.032
2008.7	1.031
2017.4	1.028
2026.1	1.025
2034.8	1.023
2043.5	1.019
2052.2	1.019
2060.9	1.014
2069.6	1.012
2078.3	1.009
2087	1.0061
2095.71	1.004
2104.41	1.002
2113.11	1.001
2121.81	1.001
2130.51	1.001
2139.21	1.001
2147.91	1.002
2156.61	1.004
2165.31	1.004
2174.01	1.004
2182.71	1.004
2191.41	1.005
2200.11	1.006
2208.81	1.005
2217.52	1.004
2226.22	1.005
2234.92	1.005
2243.62	1.004
2252.32	1.0023
2261.02	1.001
2269.72	0.9983
2278.42	0.998
2287.12	0.997
2295.82	0.994
2304.52	0.994
2313.22	0.993
2321.92	0.994
2330.62	0.9913
2339.32	0.989
2348.03	0.9908
2356.73	0.9875
2365.43	0.9792
2374.13	0.9798
2382.83	0.9828
2391.53	0.98
2400.23	0.98
2408.93	0.9782
2417.63	0.9764
2426.33	0.9758
2435.03	0.974
2443.73	0.974
2452.43	0.972
2461.13	0.971
2469.84	0.9685
2478.54	0.9655
2487.24	0.9615
2495.94	0.9563
2504.64	0.9523
2513.34	0.946
2522.04	0.9418
2530.74	0.9363
2539.44	0.931
2548.14	0.9263
2556.84	0.9213
2565.54	0.9173
2574.24	0.914
2582.94	0.911
2591.64	0.91
2600.35	0.91
2609.05	0.9063
2617.75	0.906
2626.45	0.904
2635.15	0.903
2643.85	0.9
2652.55	0.8977
2661.25	0.893
2669.95	0.891
2678.65	0.8857
2687.35	0.8803
2696.05	0.873
2704.75	0.8684
2713.45	0.8624
2722.15	0.8584
2730.86	0.8521
2739.56	0.848
2748.26	0.8401
2756.96	0.832
2765.66	0.824
2774.36	0.8134
2783.06	0.8008
2791.76	0.7846
2800.46	0.7634
2809.16	0.743
2817.86	0.7237
2826.56	0.7017
2835.26	0.6768
2843.96	0.6418
2852.67	0.5925
2861.37	0.5169
2870.07	0.4276
2878.77	0.4359
2887.47	0.4776
2896.17	0.4729
2904.87	0.4364
2913.57	0.3993
2922.27	0.3667
2930.97	0.3268
2939.67	0.3276
2948.37	0.3632
2957.07	0.3993
2965.77	0.2816
2974.47	0.1545
2983.18	0.1966
2991.88	0.478
3000.58	0.5978
3009.28	0.7235
3017.98	0.742
3026.68	0.745
3035.38	0.739
3044.08	0.7286
3052.78	0.7166
3061.48	0.7046
3070.18	0.6858
3078.88	0.6646
3087.58	0.6417
3096.28	0.6136
3104.99	0.5825
3113.69	0.5538
3122.39	0.5264
3131.09	0.5007
3139.79	0.4702
3148.49	0.4334
3157.19	0.3992
3165.89	0.3729
3174.59	0.3416
3183.29	0.3146
3191.99	0.2762
3200.69	0.2444
3209.39	0.219
3218.09	0.2012
3226.79	0.1735
3235.5	0.1516
3244.2	0.1341
3252.9	0.1186
3261.6	0.1085
3270.3	0.0996
3279	0.089
3287.7	0.08
3296.4	0.0727
3305.1	0.0657
3313.8	0.0627
3322.5	0.0587
3331.2	0.0537
3339.9	0.051
3348.6	0.0494
3357.31	0.047
3366.01	0.047
3374.71	0.048
3383.41	0.05
3392.11	0.0503
3400.81	0.0516
3409.51	0.055
3418.21	0.061
3426.91	0.0653
3435.61	0.0723
3444.31	0.0803
3453.01	0.0893
3461.71	0.1045
3470.41	0.1183
3479.11	0.135
3487.82	0.1563
3496.52	0.186
3505.22	0.2107
3513.92	0.2439
3522.62	0.2816
3531.32	0.3184
3540.02	0.3506
3548.72	0.3892
3557.42	0.4437
3566.12	0.4842
3574.82	0.5238
3583.52	0.5818
3592.22	0.631
3600.92	0.6789
3609.62	0.7261
3618.33	0.7543
3627.03	0.7843
3635.73	0.8124
3644.43	0.8342
3653.13	0.8532
3661.83	0.8655
3670.53	0.8745
3679.23	0.8825
3687.93	0.8936
3696.63	0.91
3705.33	0.9181
3714.03	0.922
3722.73	0.925
3731.43	0.926
3740.14	0.927
3748.84	0.927
3757.54	0.929
3766.24	0.93
3774.94	0.931
3783.64	0.931
3792.34	0.93
