Infrared Spectrum: METHYL ACETATE
Formula: C3 H6 O2
CAS: 79-20-9
State: GAS (VAPOR, NO DILUENT)
Boiling point: 58 C
Class: COBLENTZ
Instrument: PERKIN-ELMER 21 (GRATING)
Sampling: TRANSMISSION
Path length: 10 CM
Resolution: 4
MICROMETERS	TRANSMITTANCE
2.022	0.758
2.05524	0.76
2.08848	0.763
2.12172	0.764
2.15496	0.766
2.18821	0.771
2.22145	0.776
2.25469	0.776
2.28793	0.766
2.32117	0.77
2.35441	0.776
2.38765	0.778
2.42089	0.778
2.45413	0.78
2.48737	0.783
2.52062	0.784
2.55386	0.79
2.5871	0.794
2.62034	0.797
2.65358	0.801
2.68682	0.802
2.72006	0.797
2.7533	0.795
2.78654	0.798
2.81978	0.79
2.85303	0.776
2.88627	0.795
2.91951	0.8
2.95275	0.804
2.98599	0.807
3.01923	0.81
3.05247	0.811
3.08571	0.81
3.11895	0.808
3.15219	0.811
3.18544	0.804
3.21868	0.78
3.25192	0.722
3.28516	0.62
3.3184	0.589
3.35164	0.514
3.38488	0.596
3.41812	0.677
3.45136	0.732
3.48461	0.736
3.51785	0.769
3.55109	0.8
3.58433	0.82
3.61757	0.821
3.65081	0.827
3.68405	0.83
3.71729	0.833
3.75053	0.833
3.78377	0.832
3.81702	0.829
3.85026	0.827
3.8835	0.832
3.91674	0.834
3.94998	0.834
3.98322	0.833
4.01646	0.829
4.0497	0.829
4.08294	0.834
4.11618	0.834
4.14943	0.834
4.18267	0.835
4.21591	0.845
4.24915	0.85
4.28239	0.854
4.31563	0.852
4.34887	0.839
4.38211	0.834
4.41535	0.834
4.44859	0.832
4.48184	0.833
4.51508	0.832
4.54832	0.833
4.58156	0.833
4.6148	0.834
4.64804	0.833
4.68128	0.828
4.71452	0.817
4.74776	0.789
4.78101	0.77
4.81425	0.773
4.84749	0.809
4.88073	0.816
4.91397	0.817
4.94721	0.821
4.98045	0.825
5.01369	0.83
5.04693	0.832
5.08017	0.83
5.11342	0.832
5.14666	0.829
5.1799	0.828
5.21314	0.813
5.24638	0.803
5.27962	0.803
5.31286	0.809
5.3461	0.82
5.37934	0.826
5.41258	0.83
5.44583	0.827
5.47907	0.813
5.51231	0.713
5.54555	0.422
5.57879	0.105
5.61203	0.028
5.64527	0.038
5.67851	0.051
5.71175	0.35
5.74499	0.602
5.77824	0.703
5.81148	0.752
5.84472	0.778
5.87796	0.789
5.9112	0.785
5.94444	0.778
5.97768	0.782
6.01092	0.789
6.04416	0.801
6.07741	0.804
6.11065	0.8
6.14389	0.801
6.17713	0.802
6.21037	0.803
6.24361	0.807
6.27685	0.809
6.31009	0.805
6.34333	0.803
6.37657	0.797
6.40982	0.802
6.44306	0.792
6.4763	0.792
6.50954	0.785
6.54278	0.78
6.57602	0.773
6.60926	0.766
6.6425	0.736
6.67574	0.705
6.70898	0.678
6.74223	0.647
6.77547	0.638
6.80871	0.617
6.84195	0.552
6.87519	0.38
6.90843	0.426
6.94167	0.43
6.97491	0.517
7.00815	0.64
7.04139	0.69
7.07464	0.719
7.10788	0.711
7.14112	0.653
7.17436	0.464
7.2076	0.286
7.24084	0.295
7.27408	0.311
7.30732	0.34
7.34056	0.46
7.37381	0.615
7.40705	0.7
7.44029	0.75
7.47353	0.76
7.50677	0.767
7.54001	0.77
7.57325	0.761
7.60649	0.745
7.63973	0.732
7.67297	0.717
7.70622	0.67
7.73946	0.559
7.7727	0.451
7.80594	0.404
7.83918	0.348
7.87242	0.248
7.90566	0.101
7.9389	0.026
7.97214	0.016
8.00538	0.013
8.03863	0.014
8.07187	0.014
8.10511	0.016
8.13835	0.048
8.17159	0.157
8.20483	0.328
8.23807	0.44
8.27131	0.55
8.30455	0.614
8.33779	0.66
8.37104	0.692
8.40428	0.716
8.43752	0.729
8.47076	0.736
8.504	0.742
8.53724	0.758
8.57048	0.767
8.60372	0.782
8.63696	0.782
8.67021	0.779
8.70345	0.772
8.73669	0.764
8.76993	0.752
8.80317	0.75
8.83641	0.745
8.86965	0.751
8.90289	0.755
8.93613	0.761
8.96937	0.764
9.00262	0.76
9.03586	0.753
9.0691	0.738
9.10234	0.721
9.13558	0.704
9.16882	0.677
9.20206	0.641
9.2353	0.602
9.26854	0.535
9.30178	0.454
9.33503	0.36
9.36827	0.29
9.40151	0.265
9.43475	0.235
9.46799	0.239
9.50123	0.24
9.53447	0.241
9.56771	0.279
9.60095	0.334
9.63419	0.402
9.66744	0.441
9.70068	0.503
9.73392	0.579
9.76716	0.628
9.8004	0.655
9.83364	0.68
9.86688	0.704
9.90012	0.729
9.93336	0.745
9.96661	0.759
9.99985	0.766
10.0331	0.771
10.0663	0.78
10.0996	0.784
10.1328	0.792
10.1661	0.798
10.1993	0.804
10.2325	0.805
10.2658	0.808
10.299	0.808
10.3323	0.814
10.3655	0.821
10.3987	0.829
10.432	0.834
10.4652	0.836
10.4985	0.841
10.5317	0.844
10.5649	0.845
10.5982	0.845
10.6314	0.845
10.6647	0.845
10.6979	0.845
10.7311	0.845
10.7644	0.844
10.7976	0.846
10.8309	0.847
10.8641	0.851
10.8974	0.845
10.9306	0.845
10.9638	0.847
10.9971	0.846
11.0303	0.847
11.0636	0.848
11.0968	0.847
11.13	0.847
11.1633	0.847
11.1965	0.845
11.2298	0.845
11.263	0.846
11.2962	0.844
11.3295	0.839
11.3627	0.84
11.396	0.83
11.4292	0.826
11.4625	0.819
11.4957	0.802
11.5289	0.789
11.5622	0.769
11.5954	0.74
11.6287	0.703
11.6619	0.654
11.6951	0.608
11.7284	0.576
11.7616	0.552
11.7949	0.553
11.8281	0.578
11.8613	0.602
11.8946	0.608
11.9278	0.598
11.9611	0.586
11.9943	0.583
12.0275	0.589
12.0608	0.603
12.094	0.638
12.1273	0.666
12.1605	0.686
12.1938	0.713
12.227	0.733
12.2602	0.752
12.2935	0.765
12.3267	0.777
12.36	0.79
12.3932	0.798
12.4264	0.805
12.4597	0.815
12.4929	0.82
12.5262	0.828
12.5594	0.832
12.5926	0.833
12.6259	0.836
12.6591	0.839
12.6924	0.835
12.7256	0.838
12.7589	0.84
12.7921	0.836
12.8253	0.836
12.8586	0.839
12.8918	0.834
12.9251	0.835
12.9583	0.835
12.9915	0.835
13.0248	0.839
13.058	0.834
13.0913	0.834
13.1245	0.833
13.1577	0.833
13.191	0.834
13.2242	0.833
13.2575	0.83
13.2907	0.827
13.3239	0.827
13.3572	0.825
13.3904	0.825
13.4237	0.823
13.4569	0.821
13.4902	0.822
13.5234	0.822
13.5566	0.821
13.5899	0.819
13.6231	0.819
13.6564	0.816
13.6896	0.816
13.7228	0.815
13.7561	0.81
13.7893	0.807
13.8226	0.807
13.8558	0.803
13.889	0.798
13.9223	0.796
13.9555	0.795
13.9888	0.8
14.022	0.797
14.0553	0.794
14.0885	0.792
14.1217	0.791
14.155	0.789
14.1882	0.789
14.2215	0.786
14.2547	0.786
14.2879	0.786
14.3212	0.78
14.3544	0.779
14.3877	0.779
14.4209	0.776
14.4541	0.775
14.4874	0.771
14.5206	0.766
14.5539	0.765
14.5871	0.761
14.6203	0.759
14.6536	0.757
14.6868	0.754
14.7201	0.752
14.7533	0.753
14.7866	0.751
14.8198	0.746
14.853	0.74
14.8863	0.735
14.9195	0.726
14.9528	0.723
14.986	0.72
