Infrared Spectrum: ACETIC ACID, METHYL ESTER
Formula: C3 H6 O2
CAS: 79-20-9
State: GAS (6.2 mmHg, N2 ADDED, TOTAL PRESSURE 600 mmHg)
Class: COBLENTZ
Instrument: BECKMAN IR-9 (GRATING)
Instrument parameters: ORDER CHANGES: 670, 1200, 2000 CM^-^1
Sampling: TRANSMISSION
Path length: 10 CM
Resolution: 2
Origin: DOW CHEMICAL COMPANY
1/CM	TRANSMITTANCE
207.498	0
217.263	0
227.027	0
236.792	0
246.557	0
256.321	0.001
266.086	0.005
275.851	0.005
285.615	0.013
295.38	0.001
305.144	0.011
314.909	0.022
324.674	0.037
334.438	0.059
344.203	0.104
353.968	0.166
363.732	0.234
373.497	0.308
383.262	0.3739
393.026	0.441
402.791	0.496
412.556	0.559
422.32	0.601
432.085	0.64
441.849	0.679
451.614	0.732
461.379	0.775
471.143	0.801
480.908	0.82
490.673	0.835
500.437	0.833
510.202	0.84
519.967	0.861
529.731	0.863
539.496	0.852
549.261	0.865
559.025	0.876
568.79	0.867
578.554	0.857
588.319	0.852
598.084	0.848
607.848	0.825
617.613	0.827
627.378	0.808
637.142	0.801
646.907	0.812
656.672	0.861
666.436	0.893
676.201	0.902
685.966	0.911
695.73	0.917
705.495	0.919
715.259	0.921
725.024	0.926
734.789	0.923
744.553	0.925
754.318	0.926
764.083	0.928
773.847	0.928
783.612	0.928
793.377	0.928
803.141	0.921
812.906	0.906
822.671	0.876
832.435	0.8011
842.2	0.773
851.964	0.745
861.729	0.8069
871.494	0.885
881.258	0.911
891.023	0.919
900.788	0.921
910.552	0.928
920.317	0.925
930.082	0.925
939.846	0.926
949.611	0.923
959.376	0.917
969.14	0.902
978.905	0.9
988.669	0.889
998.434	0.893
1008.2	0.88
1017.96	0.848
1027.73	0.7841
1037.49	0.685
1047.26	0.563
1057.02	0.537
1066.79	0.544
1076.55	0.677
1086.32	0.788
1096.08	0.835
1105.85	0.859
1115.61	0.878
1125.37	0.88
1135.14	0.876
1144.9	0.868
1154.67	0.87
1164.43	0.883
1174.2	0.88
1183.96	0.848
1193.73	0.867
1203.49	0.837
1213.26	0.777
1223.02	0.6361
1232.79	0.2821
1242.55	0.08
1252.31	0.0561
1262.08	0.089
1271.84	0.479
1281.61	0.625
1291.37	0.685
1301.14	0.81
1310.9	0.868
1320.67	0.885
1330.43	0.885
1340.2	0.874
1349.96	0.855
1359.73	0.771
1369.49	0.612
1379.26	0.58
1389.02	0.531
1398.78	0.764
1408.55	0.837
1418.31	0.85
1428.08	0.803
1437.84	0.711
1447.61	0.692
1457.37	0.649
1467.14	0.773
1476.9	0.78
1486.67	0.81
1496.43	0.835
1506.2	0.853
1515.96	0.872
1525.72	0.87
1535.49	0.883
1545.25	0.876
1555.02	0.885
1564.78	0.885
1574.55	0.893
1584.31	0.9
1594.08	0.9
1603.84	0.898
1613.61	0.889
1623.37	0.885
1633.14	0.891
1642.9	0.898
1652.67	0.88
1662.43	0.882
1672.19	0.874
1681.96	0.872
1691.72	0.883
1701.49	0.861
1711.25	0.883
1721.02	0.863
1730.78	0.837
1740.55	0.7301
1750.31	0.5591
1760.08	0.217
1769.84	0.1981
1779.61	0.099
1789.37	0.337
1799.13	0.6442
1808.9	0.848
1818.66	0.9
1828.43	0.898
1838.19	0.91
1847.96	0.91
1857.72	0.91
1867.49	0.902
1877.25	0.902
1887.02	0.895
1896.78	0.897
1906.55	0.9
1916.31	0.9
1926.08	0.906
1935.84	0.911
1945.6	0.91
1955.37	0.911
1965.13	0.91
1974.9	0.904
1984.66	0.906
1994.43	0.898
2004.19	0.904
2013.96	0.904
2023.72	0.904
2033.49	0.904
2043.25	0.9035
2053.02	0.9
2062.78	0.8825
2072.54	0.872
2082.31	0.8721
2092.07	0.8791
2101.84	0.8967
2111.6	0.902
2121.37	0.9077
2131.13	0.9103
2140.9	0.913
2150.66	0.915
2160.43	0.915
2170.19	0.915
2179.96	0.915
2189.72	0.913
2199.49	0.9071
2209.25	0.904
2219.01	0.91
2228.78	0.911
2238.54	0.915
2248.31	0.9157
2258.07	0.915
2267.84	0.9119
2277.6	0.911
2287.37	0.9139
2297.13	0.9227
2306.9	0.9314
2316.66	0.9425
2326.43	0.943
2336.19	0.9416
2345.95	0.941
2355.72	0.9368
2365.48	0.9319
2375.25	0.922
2385.01	0.9151
2394.78	0.911
2404.54	0.911
2414.31	0.911
2424.07	0.913
2433.84	0.913
2443.6	0.913
2453.37	0.913
2463.13	0.9105
2472.9	0.908
2482.66	0.904
2492.42	0.906
2502.19	0.91
2511.95	0.913
2521.72	0.913
2531.48	0.915
2541.25	0.915
2551.01	0.915
2560.78	0.915
2570.54	0.915
2580.31	0.913
2590.07	0.9106
2599.84	0.9064
2609.6	0.906
2619.36	0.91
2629.13	0.9113
2638.89	0.913
2648.66	0.913
2658.42	0.913
2668.19	0.913
2677.95	0.913
2687.72	0.913
2697.48	0.915
2707.25	0.913
2717.01	0.913
2726.78	0.911
2736.54	0.91
2746.31	0.9091
2756.07	0.911
2765.83	0.913
2775.6	0.913
2785.36	0.911
2795.13	0.9102
2804.89	0.9076
2814.66	0.9027
2824.42	0.8992
2834.19	0.8757
2843.95	0.855
2853.72	0.8441
2863.48	0.8545
2873.25	0.8623
2883.01	0.8594
2892.77	0.8542
2902.54	0.8308
2912.3	0.825
2922.07	0.8212
2931.83	0.8116
2941.6	0.7656
2951.36	0.6823
2961.13	0.6458
2970.89	0.6507
2980.66	0.7662
2990.42	0.7898
3000.19	0.7513
3009.95	0.7752
3019.72	0.7822
3029.48	0.7945
3039.24	0.8078
3049.01	0.8474
3058.77	0.8625
3068.54	0.868
3078.3	0.8755
3088.07	0.883
3097.83	0.8863
3107.6	0.895
3117.36	0.897
3127.13	0.898
3136.89	0.9
3146.66	0.9
3156.42	0.9
3166.18	0.902
3175.95	0.9015
3185.71	0.902
3195.48	0.902
3205.24	0.902
3215.01	0.904
3224.77	0.906
3234.54	0.906
3244.3	0.906
3254.07	0.906
3263.83	0.906
3273.6	0.906
3283.36	0.904
3293.13	0.9028
3302.89	0.902
3312.65	0.904
3322.42	0.904
3332.18	0.904
3341.95	0.904
3351.71	0.904
3361.48	0.904
3371.24	0.904
3381.01	0.902
3390.77	0.904
3400.54	0.9029
3410.3	0.902
3420.07	0.9
3429.83	0.9
3439.59	0.9
3449.36	0.9
3459.12	0.9005
3468.89	0.902
3478.65	0.902
3488.42	0.9
3498.18	0.8929
3507.95	0.887
3517.71	0.8822
3527.48	0.882
3537.24	0.896
3547.01	0.9
3556.77	0.9
3566.54	0.9
3576.3	0.9012
3586.06	0.902
3595.83	0.902
3605.59	0.9001
3615.36	0.9012
3625.12	0.9
3634.89	0.904
3644.65	0.898
3654.42	0.9004
3664.18	0.9
3673.95	0.9
3683.71	0.9031
3693.48	0.9
3703.24	0.902
3713	0.902
3722.77	0.9053
3732.53	0.9
3742.3	0.897
3752.06	0.8994
3761.83	0.902
3771.59	0.904
3781.36	0.904
3791.12	0.904
3800.89	0.904
3810.65	0.904
3820.42	0.902
3830.18	0.8995
3839.95	0.8995
3849.71	0.902
3859.47	0.9
3869.24	0.9
3879	0.902
3888.77	0.8981
3898.53	0.8988
3908.3	0.9
3918.06	0.9
3927.83	0.9
3937.59	0.9
3947.36	0.9007
3957.12	0.9
3966.89	0.9
3976.65	0.898
