Infrared Spectrum: Acetic acid, methyl ester
Formula: C 3 H 6 O 2
CAS: 79-20-9
State: gas
Origin: Sadtler Research Labs Under US-EPA Contract
1/CM	ABSORBANCE
450	0
462	0.0619321
474	0.0502618
486	0.0558318
498	0.0591472
510	0.0522511
522	0.0594124
534	0.0489357
546	0.0584841
558	0.0637888
570	0.0562296
582	0.0610038
594	0.0688282
606	0.0843444
618	0.0808964
630	0.0974735
642	0.0811616
654	0.0774483
666	0.0541077
678	0.0480074
690	0.0518532
702	0.0495988
714	0.0484052
726	0.0519859
738	0.0494661
750	0.0474769
762	0.0501292
774	0.0488031
786	0.0465486
798	0.0582189
810	0.0714806
822	0.114183
834	0.139513
846	0.143757
858	0.122273
870	0.0697565
882	0.0511902
894	0.0480074
906	0.0480074
918	0.0460181
930	0.04814
942	0.0493335
954	0.0514554
966	0.0586167
978	0.0633909
990	0.0700218
1002	0.0811616
1014	0.112592
1026	0.171606
1038	0.274915
1050	0.337112
1062	0.327034
1074	0.23513
1086	0.142431
1098	0.108746
1110	0.0893839
1122	0.0749286
1134	0.0676347
1146	0.0619321
1158	0.0579536
1170	0.0598103
1182	0.0688282
1194	0.0981366
1206	0.200915
1218	0.506995
1230	1.08096
1242	1.31225
1254	1.17499
1266	0.621576
1278	0.26099
1290	0.182348
1302	0.0925667
1314	0.0740003
1326	0.0714806
1338	0.0828856
1350	0.121875
1362	0.239904
1374	0.289636
1386	0.287248
1398	0.125456
1410	0.09071
1422	0.125721
1434	0.180227
1446	0.197467
1458	0.172535
1470	0.111929
1482	0.103043
1494	0.0905774
1506	0.0838139
1518	0.0778462
1530	0.0738677
1542	0.0753265
1554	0.0698892
1566	0.0636562
1578	0.0632583
1590	0.0591472
1602	0.0590146
1614	0.060606
1626	0.0627278
1638	0.0635235
1650	0.0675021
1662	0.065778
1674	0.0701544
1686	0.0732046
1698	0.0706849
1710	0.0718784
1722	0.103043
1734	0.208607
1746	0.484185
1758	0.975265
1770	0.687354
1782	1.01187
1794	0.375439
1806	0.135402
1818	0.0620648
1830	0.0539751
1842	0.0521185
1854	0.0507923
1866	0.0559644
1878	0.0566275
1890	0.0588819
1902	0.0566275
1914	0.0535773
1926	0.0509249
1938	0.0501292
1950	0.0495988
1962	0.0499966
1974	0.0493335
1986	0.0486704
1998	0.0505271
2010	0.0513228
2022	0.0519859
2034	0.0531794
2046	0.0566275
2058	0.0631257
2070	0.0693587
2082	0.0698892
2094	0.0660433
2106	0.056097
2118	0.0518532
2130	0.0493335
2142	0.0480074
2154	0.047079
2166	0.0477421
2178	0.0484052
2190	0.0485378
2202	0.0499966
2214	0.0501292
2226	0.0490683
2238	0.0480074
2250	0.0485378
2262	0.04814
2274	0.0495988
2286	0.0501292
2298	0.0510575
2310	0.0538425
2322	0.0556991
2334	0.051588
2346	0.0480074
2358	0.0574232
2370	0.0458855
2382	0.0458855
2394	0.0466812
2406	0.0484052
2418	0.0484052
2430	0.0473443
2442	0.0477421
2454	0.0485378
2466	0.0495988
2478	0.0499966
2490	0.0497314
2502	0.0484052
2514	0.0480074
2526	0.047079
2538	0.0464159
2550	0.0466812
2562	0.0472117
2574	0.0464159
2586	0.0480074
2598	0.0490683
2610	0.0488031
2622	0.0505271
2634	0.049864
2646	0.0492009
2658	0.0510575
2670	0.0501292
2682	0.0490683
2694	0.0492009
2706	0.0478747
2718	0.0480074
2730	0.0486704
2742	0.04814
2754	0.0484052
2766	0.0478747
2778	0.0478747
2790	0.049864
2802	0.0510575
2814	0.0531794
2826	0.0564948
2838	0.0677673
2850	0.0742655
2862	0.0779788
2874	0.070287
2886	0.0671042
2898	0.0751938
2910	0.0864663
2922	0.0916383
2934	0.104502
2946	0.159273
2958	0.188979
2970	0.189775
2982	0.160864
2994	0.117366
3006	0.134739
3018	0.122405
3030	0.11299
3042	0.1049
3054	0.0838139
3066	0.074796
3078	0.0706849
3090	0.0645845
3102	0.0615343
3114	0.056097
3126	0.0558318
3138	0.0530468
3150	0.0501292
3162	0.0485378
3174	0.0474769
3186	0.0472117
3198	0.0468138
3210	0.0468138
3222	0.0465486
3234	0.0472117
3246	0.0474769
3258	0.047079
3270	0.0462833
3282	0.0482726
3294	0.0476095
3306	0.0473443
3318	0.0472117
3330	0.0476095
3342	0.04814
3354	0.0458855
3366	0.0464159
3378	0.0482726
3390	0.0469464
3402	0.047079
3414	0.0477421
3426	0.0474769
3438	0.0473443
3450	0.0484052
3462	0.0484052
3474	0.0485378
3486	0.0499966
3498	0.0530468
3510	0.0566275
3522	0.0564948
3534	0.0574232
3546	0.0499966
3558	0.0484052
3570	0.0490683
3582	0.0488031
3594	0.0503945
3606	0.047079
3618	0.0517206
3630	0.0525163
3642	0.0478747
3654	0.0497314
3666	0.0513228
3678	0.0507923
3690	0.049864
3702	0.0489357
3714	0.0505271
3726	0.0518532
3738	0.0469464
3750	0.0485378
3762	0.0466812
3774	0.0477421
3786	0.0494661
3798	0.0490683
3810	0.0490683
3822	0.0473443
3834	0.0484052
3846	0.0494661
3858	0.0484052
3870	0.0492009
3882	0.0480074
3894	0.0517206
3906	0.0529142
3918	0.0495988
3930	0.0501292
3942	0.0513228
3954	0.0531794
3966	0.0539751
