Infrared Spectrum: ACETIC ACID, METHYL ESTER
Formula: C3 H6 O2
CAS: 79-20-9
State: GAS (62 mmHg, N2 ADDED, TOTAL PRESSURE 600 mmHg)
Class: COBLENTZ
Instrument: BECKMAN IR-9 (GRATING)
Instrument parameters: ORDER CHANGES: 670, 1200, 2000 CM^-^1
Sampling: TRANSMISSION
Path length: 10 CM
Resolution: 2
Origin: DOW CHEMICAL COMPANY
1/CM	TRANSMITTANCE
201.932	0
211.765	0
221.598	0
231.432	0
241.265	0
251.098	0
260.931	0
270.764	0.001
280.598	0.005
290.431	0
300.264	0
310.097	0.009
319.93	0.016
329.764	0.037
339.597	0.069
349.43	0.112
359.263	0.172
369.096	0.2469
378.93	0.317
388.763	0.39
398.596	0.452
408.429	0.521
418.262	0.497
428.096	0.403
437.929	0.403
447.762	0.454
457.595	0.701
467.428	0.7989
477.261	0.823
487.095	0.846
496.928	0.878
506.761	0.857
516.594	0.876
526.427	0.887
536.261	0.868
546.094	0.874
555.927	0.898
565.76	0.883
575.593	0.851
585.427	0.799
595.26	0.729
605.093	0.6111
614.926	0.562
624.759	0.542
634.593	0.448
644.426	0.4999
654.259	0.574
664.092	0.8058
673.925	0.883
683.759	0.908
693.592	0.924
703.425	0.936
713.258	0.939
723.091	0.943
732.925	0.941
742.758	0.939
752.591	0.941
762.424	0.943
772.257	0.939
782.091	0.938
791.924	0.932
801.757	0.915
811.59	0.846
821.423	0.654
831.257	0.3304
841.09	0.172
850.923	0.181
860.756	0.1998
870.589	0.5528
880.423	0.767
890.256	0.876
900.089	0.911
909.922	0.932
919.755	0.932
929.589	0.928
939.422	0.928
949.255	0.919
959.088	0.9
968.921	0.84
978.755	0.748
988.588	0.742
998.421	0.701
1008.25	0.709
1018.09	0.581
1027.92	0.3482
1037.75	0.0781
1047.59	0
1057.42	0
1067.25	0.001
1077.09	0.031
1086.92	0.18
1096.75	0.3629
1106.59	0.5209
1116.42	0.636
1126.25	0.681
1136.09	0.679
1145.92	0.673
1155.75	0.69
1165.59	0.716
1175.42	0.72
1185.25	0.656
1195.08	0.6091
1204.92	0.4351
1214.75	0.174
1224.58	0
1234.42	0
1244.25	0
1254.08	0
1263.92	0
1273.75	0.003
1283.58	0.041
1293.42	0.1029
1303.25	0.4098
1313.08	0.621
1322.92	0.709
1332.75	0.699
1342.58	0.649
1352.42	0.4722
1362.25	0.0672
1372.08	0
1381.92	0
1391.75	0.0689
1401.58	0.3768
1411.42	0.53
1421.25	0.4722
1431.08	0.1462
1440.91	0.031
1450.75	0.0111
1460.58	0.1199
1470.41	0.24
1480.25	0.268
1490.08	0.3539
1499.91	0.465
1509.75	0.57
1519.58	0.634
1529.41	0.662
1539.25	0.699
1549.08	0.705
1558.91	0.726
1568.75	0.75
1578.58	0.763
1588.41	0.799
1598.25	0.806
1608.08	0.782
1617.91	0.761
1627.75	0.757
1637.58	0.759
1647.41	0.78
1657.25	0.724
1667.08	0.69
1676.91	0.675
1686.74	0.662
1696.58	0.712
1706.41	0.742
1716.24	0.6961
1726.08	0.5531
1735.91	0.2721
1745.74	0.0111
1755.58	0
1765.41	0
1775.24	0
1785.08	0
1794.91	0.007
1804.74	0.24
1814.58	0.6768
1824.41	0.8249
1834.24	0.868
1844.08	0.889
1853.91	0.9
1863.74	0.881
1873.58	0.842
1883.41	0.803
1893.24	0.763
1903.07	0.765
1912.91	0.789
1922.74	0.842
1932.57	0.883
1942.41	0.902
1952.24	0.902
1962.07	0.9
1971.91	0.894
1981.74	0.898
1991.57	0.902
2001.41	0.876
2011.24	0.863
2021.07	0.8382
2030.91	0.8331
2040.74	0.8349
2050.57	0.8329
2060.41	0.8145
2070.24	0.7232
2080.07	0.6386
2089.91	0.6303
2099.74	0.6508
2109.57	0.7855
2119.41	0.8297
2129.24	0.8701
2139.07	0.9057
2148.9	0.9285
2158.74	0.9355
2168.57	0.939
2178.4	0.9382
2188.24	0.9314
2198.07	0.9214
2207.9	0.9021
2217.74	0.8913
2227.57	0.8934
2237.4	0.9057
2247.24	0.9262
2257.07	0.934
2266.9	0.926
2276.74	0.9084
2286.57	0.898
2296.4	0.9019
2306.24	0.9278
2316.07	0.949
2325.9	0.949
2335.74	0.945
2345.57	0.9419
2355.4	0.943
2365.24	0.943
2375.07	0.9428
2384.9	0.9372
2394.73	0.932
2404.57	0.9255
2414.4	0.9127
2424.23	0.909
2434.07	0.9133
2443.9	0.921
2453.73	0.9206
2463.57	0.9116
2473.4	0.8912
2483.23	0.8655
2493.07	0.855
2502.9	0.8601
2512.73	0.8945
2522.57	0.9072
2532.4	0.9177
2542.23	0.9274
2552.07	0.932
2561.9	0.932
2571.73	0.93
2581.57	0.9242
2591.4	0.9113
2601.23	0.8985
2611.07	0.8786
2620.9	0.8701
2630.73	0.8839
2640.56	0.902
2650.4	0.91
2660.23	0.913
2670.06	0.9161
2679.9	0.9129
2689.73	0.911
2699.56	0.9112
2709.4	0.917
2719.23	0.9128
2729.06	0.9034
2738.9	0.8939
2748.73	0.8917
2758.56	0.891
2768.4	0.9014
2778.23	0.908
2788.06	0.9025
2797.9	0.897
2807.73	0.8738
2817.56	0.8539
2827.4	0.8232
2837.23	0.7448
2847.06	0.5634
2856.9	0.5127
2866.73	0.5135
2876.56	0.6117
2886.39	0.6026
2896.23	0.5678
2906.06	0.4591
2915.89	0.425
2925.73	0.4201
2935.56	0.3772
2945.39	0.1535
2955.23	0.0516
2965.06	0.041
2974.89	0.0834
2984.73	0.2539
2994.56	0.2431
3004.39	0.2339
3014.23	0.228
3024.06	0.2493
3033.89	0.2819
3043.73	0.3842
3053.56	0.5481
3063.39	0.6031
3073.23	0.6401
3083.06	0.694
3092.89	0.7318
3102.72	0.7685
3112.56	0.7963
3122.39	0.8168
3132.22	0.8316
3142.06	0.8494
3151.89	0.8622
3161.72	0.8712
3171.56	0.8788
3181.39	0.8857
3191.22	0.891
3201.06	0.8967
3210.89	0.9
3220.72	0.9056
3230.56	0.9128
3240.39	0.9159
3250.22	0.917
3260.06	0.9179
3269.89	0.923
3279.72	0.923
3289.56	0.923
3299.39	0.918
3309.22	0.917
3319.06	0.917
3328.89	0.9211
3338.72	0.924
3348.55	0.924
3358.39	0.923
3368.22	0.921
3378.05	0.921
3387.89	0.923
3397.72	0.9237
3407.55	0.923
3417.39	0.923
3427.22	0.921
3437.05	0.9155
3446.89	0.913
3456.72	0.9165
3466.55	0.919
3476.39	0.9174
3486.22	0.9074
3496.05	0.8942
3505.89	0.8254
3515.72	0.7564
3525.55	0.747
3535.39	0.7461
3545.22	0.8475
3555.05	0.9071
3564.89	0.9112
3574.72	0.909
3584.55	0.9051
3594.38	0.906
3604.22	0.913
3614.05	0.921
3623.88	0.9253
3633.72	0.9262
3643.55	0.9309
3653.38	0.9132
3663.22	0.923
3673.05	0.9089
3682.88	0.9115
3692.72	0.9193
3702.55	0.923
3712.38	0.9127
3722.22	0.9171
3732.05	0.9238
3741.88	0.9201
3751.72	0.915
3761.55	0.9255
3771.38	0.93
3781.22	0.932
3791.05	0.9374
3800.88	0.928
3810.72	0.93
3820.55	0.9263
3830.38	0.926
3840.21	0.924
3850.05	0.9236
3859.88	0.921
3869.71	0.923
3879.55	0.924
3889.38	0.924
3899.21	0.921
3909.05	0.919
3918.88	0.923
3928.71	0.919
3938.55	0.915
3948.38	0.915
3958.21	0.9171
3968.05	0.917
3977.88	0.9148
3987.71	0.908
3997.55	0.9018
