Infrared Spectrum: 1-Chloro-2-ethoxyethane
Formula: C 4 H 9 Cl O
CAS: 628-34-2
State: gas
Origin: Sadtler Research Labs Under US-EPA Contract
1/CM	ABSORBANCE
450	0
462	0.00682616
474	0.0240444
486	0.0332139
498	0.0285272
510	0.0173201
522	0.0172182
534	0.0143655
546	0.0135504
558	0.0143655
570	0.016505
582	0.00998453
594	0.0123278
606	0.0150787
618	0.0152824
630	0.013041
642	0.020886
654	0.0344365
666	0.0588884
678	0.109015
690	0.0941399
702	0.0376967
714	0.0251651
726	0.0341308
738	0.0524697
750	0.149259
762	0.209573
774	0.0829328
786	0.0340289
798	0.0350478
810	0.0334176
822	0.030463
834	0.0282216
846	0.0259802
858	0.0336214
870	0.0415683
882	0.0517566
894	0.053081
906	0.0441153
918	0.0387155
930	0.0333157
942	0.0299536
954	0.0335195
966	0.0394287
978	0.0436059
990	0.0508396
1002	0.0634731
1014	0.0814045
1026	0.0942418
1038	0.106162
1050	0.129188
1062	0.143961
1074	0.151398
1086	0.192966
1098	0.338557
1110	0.655108
1122	0.942622
1134	0.982152
1146	0.717766
1158	0.376763
1170	0.23698
1182	0.166579
1194	0.126946
1206	0.122361
1218	0.105449
1230	0.0784499
1242	0.074884
1254	0.108505
1266	0.0942418
1278	0.0734576
1290	0.111868
1302	0.148545
1314	0.117573
1326	0.0615373
1338	0.0547112
1350	0.110136
1362	0.144572
1374	0.155473
1386	0.174016
1398	0.104226
1410	0.0875175
1422	0.0756991
1434	0.0867024
1446	0.102596
1458	0.0960757
1470	0.0787556
1482	0.0621486
1494	0.0449304
1506	0.0303611
1518	0.0206822
1530	0.0169126
1542	0.013041
1554	0.0106977
1566	0.0120222
1578	0.0126335
1590	0.00906759
1602	0.00947512
1614	0.0129391
1626	0.0105958
1638	0.0117165
1650	0.00998453
1662	0.00937324
1674	0.011309
1686	0.00998453
1698	0.0121241
1710	0.0120222
1722	0.0124297
1734	0.0170145
1746	0.0249613
1758	0.0315837
1770	0.0316856
1782	0.0228218
1794	0.0205804
1806	0.0159956
1818	0.0100864
1830	0.0101883
1842	0.00916947
1854	0.00835441
1866	0.00906759
1878	0.00978077
1890	0.0103921
1902	0.0114109
1914	0.0120222
1926	0.0142636
1938	0.0157919
1950	0.0154862
1962	0.0170145
1974	0.0146712
1986	0.0136523
1998	0.013041
2010	0.0123278
2022	0.0118184
2034	0.0104939
2046	0.00967888
2058	0.00978077
2070	0.0100864
2082	0.0102902
2094	0.00998453
2106	0.0111052
2118	0.0115128
2130	0.0119203
2142	0.0124297
2154	0.0123278
2166	0.0116147
2178	0.0107996
2190	0.0100864
2202	0.00988265
2214	0.0103921
2226	0.0110034
2238	0.0115128
2250	0.0121241
2262	0.0118184
2274	0.0117165
2286	0.011309
2298	0.0141617
2310	0.0178295
2322	0.0185427
2334	0.0185427
2346	0.0215992
2358	0.0197653
2370	0.0176258
2382	0.0133467
2394	0.00937324
2406	0.00947512
2418	0.00886382
2430	0.00835441
2442	0.00855817
2454	0.00835441
2466	0.00804876
2478	0.00845629
2490	0.00866005
2502	0.00866005
2514	0.00845629
2526	0.00804876
2538	0.00733558
2550	0.00723369
2562	0.00774311
2574	0.00866005
2586	0.00916947
2598	0.0107996
2610	0.0116147
2622	0.0124297
2634	0.0125316
2646	0.0128373
2658	0.0129391
2670	0.0138561
2682	0.0160975
2694	0.0201728
2706	0.0261839
2718	0.0309724
2730	0.0343346
2742	0.0381042
2754	0.0397344
2766	0.0420777
2778	0.0477831
2790	0.0586846
2802	0.0699936
2814	0.0812008
2826	0.099234
2838	0.151602
2850	0.238202
2862	0.338353
2874	0.432391
2886	0.446757
2898	0.365047
2910	0.282725
2922	0.233312
2934	0.244112
2946	0.283031
2958	0.294136
2970	0.363213
2982	0.441867
2994	0.351496
3006	0.211407
3018	0.122056
3030	0.0702993
3042	0.044421
3054	0.0302593
3066	0.0222105
3078	0.0176258
3090	0.0159956
3102	0.0140599
3114	0.0132448
3126	0.0126335
3138	0.0117165
3150	0.0117165
3162	0.0112071
3174	0.0118184
3186	0.0121241
3198	0.0120222
3210	0.0117165
3222	0.0117165
3234	0.0114109
3246	0.0102902
3258	0.0104939
3270	0.0103921
3282	0.0103921
3294	0.0103921
3306	0.0106977
3318	0.0103921
3330	0.0105958
3342	0.0100864
3354	0.0102902
3366	0.0111052
3378	0.0109015
3390	0.0110034
3402	0.0101883
3414	0.0103921
3426	0.0110034
3438	0.0109015
3450	0.0105958
3462	0.009577
3474	0.0111052
3486	0.0105958
3498	0.0111052
3510	0.011309
3522	0.0102902
3534	0.0110034
3546	0.0103921
3558	0.0121241
3570	0.00988265
3582	0.0133467
3594	0.00947512
3606	0.0117165
3618	0.013041
3630	0.0100864
3642	0.0137542
3654	0.00713181
3666	0.0132448
3678	0.0163013
3690	0.00937324
3702	0.0136523
3714	0.0112071
3726	0.0141617
3738	0.0152824
3750	0.00611298
3762	0.0143655
3774	0.0144674
3786	0.0125316
3798	0.0100864
3810	0.0153843
3822	0.012226
3834	0.0126335
3846	0.0109015
3858	0.0148749
3870	0.0134486
3882	0.0114109
3894	0.013958
3906	0.0107996
3918	0.0115128
3930	0.0170145
3942	0.0127354
3954	0.0125316
3966	0.0106977
