Infrared Spectrum: 2-Butene-1,4-diol
Formula: C 4 H 8 O 2
CAS: 110-64-5
State: gas
Origin: Sadtler Research Labs Under US-EPA Contract
1/CM	ABSORBANCE
450	0
462	0.0299009
474	0.00911934
486	0.00640108
498	0.0169234
510	0.030427
522	0.0206939
534	0.0168357
546	0.0142051
558	0.0188525
570	0.0117499
582	0.0163973
594	0.0133283
606	0.0114869
618	0.0124514
630	0.0161342
642	0.0216584
654	0.0282349
666	0.0244644
678	0.0336714
690	0.0391956
702	0.0434046
714	0.0477012
726	0.0478766
738	0.0459475
750	0.0334961
762	0.0251659
774	0.0169234
786	0.0128022
798	0.0124514
810	0.0118376
822	0.0114869
834	0.0113115
846	0.0145559
858	0.022623
870	0.030164
882	0.0405986
894	0.0534885
906	0.0706749
918	0.0961039
930	0.128022
942	0.15915
954	0.188086
966	0.2122
978	0.244644
990	0.296379
1002	0.397744
1014	0.601614
1026	0.870284
1038	0.79917
1050	0.458685
1062	0.238067
1074	0.160115
1086	0.128548
1098	0.110747
1110	0.0965423
1122	0.0780405
1134	0.0690966
1146	0.0698857
1158	0.0810219
1170	0.0958408
1182	0.111887
1194	0.126794
1206	0.136878
1218	0.139333
1230	0.132406
1242	0.118639
1254	0.107415
1266	0.0978576
1278	0.0882121
1290	0.0808465
1302	0.0786543
1314	0.0811972
1326	0.0933856
1338	0.121971
1350	0.161342
1362	0.182212
1374	0.171251
1386	0.149768
1398	0.142402
1410	0.141438
1422	0.120305
1434	0.0735686
1446	0.0500687
1458	0.0442814
1470	0.0479642
1482	0.0400725
1494	0.0291118
1506	0.0241137
1518	0.0206062
1530	0.0154327
1542	0.0118376
1554	0.00973315
1566	0.0113115
1578	0.0144682
1590	0.00973315
1602	0.0137667
1614	0.0153451
1626	0.0109608
1638	0.0135036
1650	0.0143805
1662	0.0099962
1674	0.0154327
1686	0.0144682
1698	0.0160465
1710	0.0154327
1722	0.0199047
1734	0.0207816
1746	0.022623
1758	0.0144682
1770	0.00990852
1782	0.00727794
1794	0.0102593
1806	0.00947009
1818	0.0087686
1830	0.0087686
1842	0.0049981
1854	0.00412124
1866	0.00420893
1878	0.0043843
1890	0.00534885
1902	0.00552422
1914	0.00552422
1926	0.00675182
1938	0.00701488
1950	0.00675182
1962	0.00719025
1974	0.00701488
1986	0.00710257
1998	0.00745331
2010	0.00833017
2022	0.00850554
2034	0.00947009
2046	0.00990852
2058	0.00982083
2070	0.0081548
2082	0.0056119
2094	0.00429661
2106	0.00341975
2118	0.00350744
2130	0.00298132
2142	0.00298132
2154	0.00245521
2166	0.00254289
2178	0.00210446
2190	0.00227984
2202	0.00263058
2214	0.00201678
2226	0.00227984
2238	0.00263058
2250	0.00333207
2262	0.00350744
2274	0.00385818
2286	0.00569959
2298	0.00894397
2310	0.0115746
2322	0.00903166
2334	0.0081548
2346	0.0151697
2358	0.00833017
2370	0.0140298
2382	0.0113115
2394	0.00587496
2406	0.00534885
2418	0.00491042
2430	0.0049981
2442	0.00429661
2454	0.00491042
2466	0.00464736
2478	0.0043843
2490	0.00491042
2502	0.00482273
2514	0.00455967
2526	0.00447199
2538	0.00455967
2550	0.00420893
2562	0.00455967
2574	0.00412124
2586	0.00491042
2598	0.00473504
2610	0.00534885
2622	0.0056119
2634	0.00648876
2646	0.00666414
2658	0.00683951
2670	0.00797943
2682	0.00859323
2694	0.00990852
2706	0.0113115
2718	0.0128022
2730	0.0142051
2742	0.0163973
2754	0.0180633
2766	0.0210446
2778	0.024289
2790	0.0284103
2802	0.0337591
2814	0.0427908
2826	0.0576097
2838	0.0822495
2850	0.119516
2862	0.1652
2874	0.214392
2886	0.247976
2898	0.250519
2910	0.236928
2922	0.234911
2934	0.240084
2946	0.224301
2958	0.186859
2970	0.155029
2982	0.123462
2994	0.0901412
3006	0.0814603
3018	0.111274
3030	0.132143
3042	0.118376
3054	0.0652384
3066	0.0305147
3078	0.0180633
3090	0.0135913
3102	0.00745331
3114	0.00517347
3126	0.00368281
3138	0.00341975
3150	0.00280595
3162	0.00306901
3174	0.00324438
3186	0.00280595
3198	0.00245521
3210	0.00298132
3222	0.00210446
3234	0.00263058
3246	0.00227984
3258	0.00227984
3270	0.00201678
3282	0.00271827
3294	0.00271827
3306	0.00263058
3318	0.00341975
3330	0.00350744
3342	0.00227984
3354	0.00403356
3366	0.00464736
3378	0.00482273
3390	0.00543653
3402	0.00622571
3414	0.00701488
3426	0.00841786
3438	0.00841786
3450	0.00920703
3462	0.0093824
3474	0.0117499
3486	0.00973315
3498	0.0117499
3510	0.0144682
3522	0.0217461
3534	0.0338468
3546	0.042177
3558	0.0436676
3570	0.0428785
3582	0.0477889
3594	0.0425277
3606	0.0427031
3618	0.0453337
3630	0.0560314
3642	0.0883875
3654	0.135212
3666	0.160378
3678	0.118376
3690	0.0516471
3702	0.0245521
3714	0.0116622
3726	0.00412124
3738	0.00289364
3750	0.00105223
3762	0.00368281
3774	0.00245521
3786	0.00201678
3798	0.00184141
3810	0.007541
3822	0.00184141
3834	0.00517347
3846	0.00429661
3858	0.00350744
3870	0.00771637
3882	0.00517347
3894	0.00666414
3906	0.00491042
3918	0.00324438
3930	0.00789174
3942	0.00657645
3954	0.00675182
3966	0.00710257
