Infrared Spectrum: Thiophene, 2-iodo-
Formula: C 4 H 3 I S
CAS: 3437-95-4
State: gas
Origin: Sadtler Research Labs Under US-EPA Contract
1/CM	ABSORBANCE
450	0.0638906
462	0.033738
474	0.0290358
486	0.0104623
498	0.00593648
510	0.0079349
522	0.00564259
534	0.0335029
546	0.0248627
558	0.0172804
570	0.0148118
582	0.00487849
594	0.00188086
606	0.0166927
618	0.0218063
630	0.0621861
642	0.0211009
654	0.0181033
666	0.0846389
678	0.362772
690	0.58777
702	0.388751
714	0.0847564
726	0.0212773
738	0.0198078
750	0.0141653
762	0.00981576
774	0.00705324
786	0.0101684
798	0.0238635
810	0.0570137
822	0.122315
834	0.142417
846	0.12349
858	0.0523703
870	0.0181033
882	0.0125195
894	0.00928677
906	0.0162225
918	0.0154584
930	0.0179858
942	0.0845213
954	0.162107
966	0.036383
978	0.0151057
990	0.011873
1002	0.00846389
1014	0.00952187
1026	0.00963943
1038	0.0316808
1050	0.0340319
1062	0.0110501
1074	0.0139301
1086	0.0148706
1098	0.00940432
1110	0.00593648
1122	0.00705324
1134	0.00558382
1146	0.00464338
1158	0.00411439
1170	0.00329151
1182	0.0051136
1194	0.00617159
1206	0.0120493
1218	0.108444
1230	0.086461
1242	0.0288007
1254	0.0109913
1266	0.0066418
1278	0.00581892
1290	0.00523115
1302	0.00499605
1314	0.00628914
1326	0.0105211
1338	0.0330915
1350	0.0175743
1362	0.0183384
1374	0.0875777
1386	0.105034
1398	0.18503
1410	0.108091
1422	0.0178682
1434	0.00605403
1446	0.00552504
1458	0.00658302
1470	0.00564259
1482	0.00681813
1494	0.0156347
1506	0.0334441
1518	0.0211009
1530	0.00581892
1542	0.00523115
1554	0.00675936
1566	0.0108737
1578	0.0172804
1590	0.0141065
1602	0.00711202
1614	0.00717079
1626	0.0130485
1638	0.0166927
1650	0.0112852
1662	0.00399684
1674	0.00599525
1686	0.008699
1698	0.0142828
1710	0.0161049
1722	0.00711202
1734	0.00499605
1746	0.00523115
1758	0.00652425
1770	0.0132836
1782	0.0211009
1794	0.0117554
1806	0.00429072
1818	0.00299763
1830	0.00346784
1842	0.0022923
1854	0.000764101
1866	0.00293885
1878	0.00299763
1890	0.00370295
1902	0.00270374
1914	0.00217475
1926	0.00276252
1938	0.00246863
1950	0.00240986
1962	0.00264496
1974	0.00270374
1986	0.00288007
1998	0.0028213
2010	0.00246863
2022	0.00252741
2034	0.0030564
2046	0.00288007
2058	0.00335029
2070	0.00387928
2082	0.00405561
2094	0.00311518
2106	0.00270374
2118	0.00293885
2130	0.00323274
2142	0.00235108
2154	0.0022923
2166	0.0058777
2178	0.00670058
2190	0.00340907
2202	0.00188086
2214	0.00205719
2226	0.0022923
2238	0.00534871
2250	0.00523115
2262	0.0035854
2274	0.00270374
2286	0.00311518
2298	0.00323274
2310	0.00264496
2322	0.00270374
2334	0.00382051
2346	0.00693569
2358	0.00476094
2370	0.00335029
2382	0.00170453
2394	0.00158698
2406	0.00176331
2418	0.00240986
2430	0.0022923
2442	0.00217475
2454	0.00199842
2466	0.00205719
2478	0.00170453
2490	0.00146943
2502	0.00123432
2514	0.000470216
2526	0.000764101
2538	0.00135187
2550	0.00158698
2562	0.00129309
2574	0.00135187
2586	0.00293885
2598	0.00182209
2610	0.00146943
2622	0.00193964
2634	0.00117554
2646	0.00111676
2658	0.00123432
2670	0.0015282
2682	0.00111676
2694	0.00111676
2706	0.00135187
2718	0.00199842
2730	0.00270374
2742	0.00240986
2754	0.00182209
2766	0.00246863
2778	0.00376173
2790	0.00517238
2802	0.00276252
2814	0.00146943
2826	0.00111676
2838	0.00141065
2850	0.00123432
2862	0.00164576
2874	0.00199842
2886	0.0022923
2898	0.00217475
2910	0.00240986
2922	0.00270374
2934	0.00205719
2946	0.00193964
2958	0.00264496
2970	0.00252741
2982	0.00329151
2994	0.00346784
3006	0.00364417
3018	0.0030564
3030	0.0022923
3042	0.0022923
3054	0.0028213
3066	0.00452583
3078	0.0243925
3090	0.0412615
3102	0.0172217
3114	0.0126371
3126	0.0089341
3138	0.00405561
3150	0.00158698
3162	0.00193964
3174	0.00246863
3186	0.00199842
3198	0.00235108
3210	0.00223353
3222	0.00205719
3234	0.00182209
3246	0.0022923
3258	0.00258619
3270	0.0022923
3282	0.00258619
3294	0.00258619
3306	0.00258619
3318	0.00217475
3330	0.0022923
3342	0.00235108
3354	0.00258619
3366	0.00223353
3378	0.00311518
3390	0.0028213
3402	0.00288007
3414	0.00223353
3426	0.00270374
3438	0.00299763
3450	0.00235108
3462	0.00235108
3474	0.00264496
3486	0.00211597
3498	0.00311518
3510	0.0022923
3522	0.00223353
3534	0.00299763
3546	0.00176331
3558	0.00170453
3570	0.00246863
3582	0.00193964
3594	0.00288007
3606	0.00199842
3618	0.00364417
3630	0.00464338
3642	0.00258619
3654	0.00288007
3666	0.00276252
3678	0.00393806
3690	0.000999209
3702	0.00311518
3714	0.00387928
3726	0.00217475
3738	0.0035854
3750	0.0051136
3762	0.00423194
3774	0.00205719
3786	0.00199842
3798	0.00311518
3810	0.00452583
3822	0.00558382
3834	0.00811123
3846	0.00581892
3858	0.00240986
3870	0.00264496
3882	0.00276252
3894	0.00235108
3906	0.00264496
3918	0.00387928
3930	0.00670058
3942	0.00417317
3954	0.00722957
3966	0.00505482
