Infrared Spectrum: 2-METHYLENECYCLOPROPANEMETHANOL
Formula: C5 H8 O
CAS: 29279-66-1
State: LIQUID
Class: COBLENTZ
Instrument: PERKIN-ELMER
Sampling: TRANSMISSION
Path length: CAPILLARY
Resolution: 4
Origin: ABBOTT LABORATORIES - WASHBURN
MICROMETERS	TRANSMITTANCE
2.037	0.894
2.07668	0.8871
2.11637	0.891
2.15605	0.889
2.19574	0.8991
2.23542	0.9091
2.2751	0.9026
2.31479	0.8909
2.35447	0.9057
2.39416	0.913
2.43384	0.911
2.47352	0.9042
2.51321	0.909
2.55289	0.911
2.59258	0.909
2.63226	0.914
2.67195	0.914
2.71163	0.9108
2.75131	0.8807
2.791	0.8186
2.83068	0.6927
2.87037	0.5398
2.91005	0.3616
2.94973	0.1888
2.98942	0.1171
3.0291	0.0899
3.06879	0.093
3.10847	0.1486
3.14815	0.2443
3.18784	0.353
3.22752	0.51
3.26721	0.5712
3.30689	0.5841
3.34657	0.6156
3.38626	0.3764
3.42594	0.4182
3.46563	0.389
3.50531	0.371
3.54499	0.5007
3.58468	0.6633
3.62436	0.7555
3.66405	0.7821
3.70373	0.7921
3.74341	0.8165
3.7831	0.8369
3.82278	0.8409
3.86247	0.8489
3.90215	0.862
3.94184	0.866
3.98152	0.864
4.0212	0.867
4.06089	0.862
4.10057	0.857
4.14026	0.8541
4.17994	0.8591
4.21962	0.862
4.25931	0.864
4.29899	0.872
4.33868	0.8672
4.37836	0.856
4.41804	0.844
4.45773	0.829
4.49741	0.831
4.5371	0.839
4.57678	0.832
4.61646	0.827
4.65615	0.8219
4.69583	0.8219
4.73552	0.8219
4.7752	0.8171
4.81488	0.811
4.85457	0.806
4.89425	0.801
4.93394	0.801
4.97362	0.806
5.0133	0.802
5.05299	0.8156
5.09267	0.8177
5.13236	0.8165
5.17204	0.8163
5.21173	0.814
5.25141	0.816
5.29109	0.817
5.33078	0.817
5.37046	0.816
5.41015	0.8131
5.44983	0.8034
5.48951	0.7966
5.5292	0.789
5.56888	0.7649
5.60857	0.7451
5.64825	0.7345
5.68793	0.7032
5.72762	0.653
5.7673	0.7416
5.80699	0.7789
5.84667	0.78
5.88635	0.7846
5.92604	0.764
5.96572	0.7447
6.00541	0.7317
6.04509	0.732
6.08477	0.7284
6.12446	0.734
6.16414	0.743
6.20383	0.754
6.24351	0.7593
6.28319	0.7642
6.32288	0.762
6.36256	0.7604
6.40225	0.75
6.44193	0.751
6.48162	0.749
6.5213	0.7465
6.56098	0.739
6.60067	0.7423
6.64035	0.7243
6.68004	0.7119
6.71972	0.679
6.7594	0.6287
6.79909	0.566
6.83877	0.503
6.87846	0.493
6.91814	0.469
6.95782	0.4259
6.99751	0.418
7.03719	0.3987
7.07688	0.384
7.11656	0.3565
7.15624	0.3448
7.19593	0.3944
7.23561	0.4185
7.2753	0.4123
7.31498	0.4085
7.35466	0.4643
7.39435	0.5125
7.43403	0.53
7.47372	0.534
7.5134	0.5417
7.55309	0.5574
7.59277	0.59
7.63245	0.5915
7.67214	0.5755
7.71182	0.5757
7.75151	0.5931
7.79119	0.6138
7.83087	0.6334
7.87056	0.638
7.91024	0.645
7.94993	0.6395
7.98961	0.6425
8.02929	0.6258
8.06898	0.5894
8.10866	0.5495
8.14835	0.5209
8.18803	0.5294
8.22771	0.5723
8.2674	0.6136
8.30708	0.6392
8.34677	0.659
8.38645	0.6772
8.42613	0.693
8.46582	0.697
8.5055	0.6989
8.54519	0.6905
8.58487	0.6795
8.62455	0.6746
8.66424	0.6599
8.70392	0.6291
8.74361	0.5694
8.78329	0.4425
8.82298	0.3347
8.86266	0.319
8.90234	0.394
8.94203	0.4533
8.98171	0.5123
9.0214	0.545
9.06108	0.5322
9.10076	0.4596
9.14045	0.3409
9.18013	0.3232
9.21982	0.4491
9.2595	0.5162
9.29918	0.5434
9.33887	0.538
9.37855	0.4952
9.41824	0.458
9.45792	0.4513
9.4976	0.4256
9.53729	0.3436
9.57697	0.2419
9.61666	0.1404
9.65634	0.0953
9.69602	0.0759
9.73571	0.076
9.77539	0.0703
9.81508	0.0564
9.85476	0.0388
9.89444	0.0527
9.93413	0.1284
9.97381	0.2074
10.0135	0.3076
10.0532	0.3915
10.0929	0.4558
10.1325	0.464
10.1722	0.4488
10.2119	0.4462
10.2516	0.4528
10.2913	0.4502
10.331	0.5101
10.3707	0.5618
10.4103	0.58
10.45	0.575
10.4897	0.5809
10.5294	0.6226
10.5691	0.6465
10.6088	0.6562
10.6484	0.6382
10.6881	0.5962
10.7278	0.5198
10.7675	0.4634
10.8072	0.4974
10.8469	0.5498
10.8865	0.5804
10.9262	0.5694
10.9659	0.5338
11.0056	0.472
11.0453	0.3965
11.085	0.3141
11.1247	0.2352
11.1643	0.1693
11.204	0.1228
11.2437	0.0928
11.2834	0.093
11.3231	0.1296
11.3628	0.2139
11.4024	0.3137
11.4421	0.4271
11.4818	0.5202
11.5215	0.5685
11.5612	0.5879
11.6009	0.5902
11.6405	0.5738
11.6802	0.5641
11.7199	0.5753
11.7596	0.6024
11.7993	0.6248
11.839	0.6474
11.8786	0.6681
11.9183	0.677
11.958	0.6839
11.9977	0.6856
12.0374	0.688
12.0771	0.688
12.1168	0.6884
12.1564	0.685
12.1961	0.682
12.2358	0.672
12.2755	0.663
12.3152	0.66
12.3549	0.657
12.3945	0.6473
12.4342	0.6311
12.4739	0.6161
12.5136	0.5985
12.5533	0.5847
12.593	0.588
12.6326	0.6094
12.6723	0.6219
12.712	0.6354
12.7517	0.64
12.7914	0.63
12.8311	0.635
12.8707	0.632
12.9104	0.627
12.9501	0.623
12.9898	0.6151
13.0295	0.615
13.0692	0.605
13.1089	0.6071
13.1485	0.5964
13.1882	0.5903
13.2279	0.5831
13.2676	0.5743
13.3073	0.5697
13.347	0.568
13.3866	0.565
13.4263	0.566
13.466	0.5673
13.5057	0.5655
13.5454	0.56
13.5851	0.558
13.6247	0.555
13.6644	0.546
13.7041	0.541
13.7438	0.533
13.7835	0.525
13.8232	0.5124
13.8629	0.5008
13.9025	0.491
13.9422	0.489
13.9819	0.489
14.0216	0.496
14.0613	0.498
14.101	0.5
14.1406	0.501
14.1803	0.501
14.22	0.5
14.2597	0.498
14.2994	0.496
14.3391	0.494
14.3787	0.494
14.4184	0.489
14.4581	0.489
14.4978	0.486
14.5375	0.482
14.5772	0.481
14.6168	0.474
14.6565	0.474
14.6962	0.4681
14.7359	0.468
14.7756	0.463
14.8153	0.455
14.855	0.4487
14.8946	0.451
14.9343	0.448
14.974	0.445
15.0137	0.4683
15.0534	0.4509
15.0931	0.448
15.1327	0.439
15.1724	0.444
15.2121	0.4363
15.2518	0.4331
15.2915	0.434
15.3312	0.427
15.3708	0.429
15.4105	0.4282
