Infrared Spectrum: Ethene, chloro-
Formula: C 2 H 3 Cl
CAS: 75-01-4
State: gas
Origin: Sadtler Research Labs Under US-EPA Contract
1/CM	ABSORBANCE
450	0
462	0.00692044
474	0.0112627
486	0.00830453
498	0.00830453
510	0.00917298
522	0.0098786
534	0.00933582
546	0.0139766
558	0.0148993
570	0.0173961
582	0.0254835
594	0.028116
606	0.0316984
618	0.069693
630	0.0337609
642	0.0328925
654	0.0301243
666	0.0236381
678	0.0239366
690	0.0600857
702	0.147718
714	0.146252
726	0.187232
738	0.154529
750	0.0225254
762	0.011724
774	0.00968862
786	0.00922726
798	0.0102857
810	0.0118326
822	0.015415
834	0.0211141
846	0.0294187
858	0.0443994
870	0.0593801
882	0.0675761
894	0.120389
906	0.100577
918	0.116236
930	0.113821
942	0.239285
954	0.0877404
966	0.0836424
978	0.071077
990	0.0508042
1002	0.0387545
1014	0.0791373
1026	0.077699
1038	0.0685803
1050	0.0562591
1062	0.0178575
1074	0.00833167
1086	0.00803314
1098	0.00830453
1110	0.00803314
1122	0.0081417
1134	0.00776175
1146	0.00816884
1158	0.00776175
1170	0.00789745
1182	0.00762606
1194	0.00806028
1206	0.00944437
1218	0.0106385
1230	0.0102857
1242	0.0125654
1254	0.0203543
1266	0.0480903
1278	0.04041
1290	0.0570733
1302	0.0366919
1314	0.0166362
1326	0.0157406
1338	0.018156
1350	0.0287945
1362	0.0316984
1374	0.0269219
1386	0.0368548
1398	0.0194858
1410	0.0139494
1422	0.0123211
1434	0.0105299
1446	0.00930868
1458	0.00860306
1470	0.00833167
1482	0.0104757
1494	0.0173961
1506	0.0186174
1518	0.0175861
1530	0.0190516
1542	0.0127553
1554	0.0134881
1566	0.0215484
1578	0.0587831
1590	0.172821
1602	0.216569
1614	0.16107
1626	0.236516
1638	0.041007
1650	0.00990573
1662	0.00968862
1674	0.0102585
1686	0.00990573
1698	0.00944437
1710	0.00768034
1722	0.00759892
1734	0.00871162
1746	0.00792459
1758	0.00892873
1770	0.0111813
1782	0.0151164
1794	0.0137866
1806	0.0178575
1818	0.0159035
1830	0.0125111
1842	0.0129724
1854	0.0134609
1866	0.0114527
1878	0.00936295
1890	0.0106113
1902	0.00784317
1914	0.007029
1926	0.00700186
1938	0.0071647
1950	0.00692044
1962	0.00708328
1974	0.00746322
1986	0.00719183
1998	0.00711042
2010	0.00697472
2022	0.00681189
2034	0.00692044
2046	0.00689331
2058	0.007029
2070	0.0071647
2082	0.00686617
2094	0.00697472
2106	0.00711042
2118	0.00689331
2130	0.00686617
2142	0.00692044
2154	0.00659478
2166	0.00678475
2178	0.00662192
2190	0.00648622
2202	0.00662192
2214	0.00664906
2226	0.00645908
2238	0.00686617
2250	0.00651336
2262	0.00651336
2274	0.00675761
2286	0.00637766
2298	0.00656764
2310	0.00616055
2322	0.00841309
2334	0.00857592
2346	0.00887445
2358	0.00713756
2370	0.00738181
2382	0.00637766
2394	0.00673047
2406	0.00667619
2418	0.00667619
2430	0.00662192
2442	0.00667619
2454	0.00656764
2466	0.0064048
2478	0.00662192
2490	0.00656764
2502	0.00681189
2514	0.00643194
2526	0.00648622
2538	0.00683903
2550	0.00664906
2562	0.00651336
2574	0.00651336
2586	0.00651336
2598	0.00713756
2610	0.00686617
2622	0.00689331
2634	0.00681189
2646	0.00705614
2658	0.00711042
2670	0.00708328
2682	0.0065405
2694	0.007029
2706	0.00692044
2718	0.00692044
2730	0.00713756
2742	0.00675761
2754	0.00664906
2766	0.00692044
2778	0.00700186
2790	0.00681189
2802	0.00681189
2814	0.00678475
2826	0.00700186
2838	0.00645908
2850	0.0065405
2862	0.00683903
2874	0.00711042
2886	0.00719183
2898	0.00708328
2910	0.00711042
2922	0.00713756
2934	0.00743609
2946	0.00773461
2958	0.00730039
2970	0.00797887
2982	0.00759892
2994	0.00719183
3006	0.00868448
3018	0.0108556
3030	0.0116426
3042	0.012294
3054	0.0119954
3066	0.0188345
3078	0.0233395
3090	0.018156
3102	0.031237
3114	0.0203
3126	0.0161206
3138	0.0182103
3150	0.011317
3162	0.00928154
3174	0.00757178
3186	0.00724611
3198	0.00705614
3210	0.00719183
3222	0.00700186
3234	0.00632339
3246	0.00624197
3258	0.00686617
3270	0.00675761
3282	0.00705614
3294	0.00683903
3306	0.00675761
3318	0.00656764
3330	0.00705614
3342	0.0065405
3354	0.00700186
3366	0.00659478
3378	0.00678475
3390	0.0075175
3402	0.00673047
3414	0.00648622
3426	0.0071647
3438	0.00689331
3450	0.00664906
3462	0.00694758
3474	0.00692044
3486	0.00700186
3498	0.00749036
3510	0.00705614
3522	0.00681189
3534	0.00662192
3546	0.00678475
3558	0.00749036
3570	0.00754464
3582	0.0071647
3594	0.00827739
3606	0.00664906
3618	0.00743609
3630	0.00754464
3642	0.00681189
3654	0.00759892
3666	0.00621483
3678	0.00857592
3690	0.00784317
3702	0.00754464
3714	0.00811456
3726	0.00662192
3738	0.00792459
3750	0.007029
3762	0.00719183
3774	0.00754464
3786	0.00746322
3798	0.0075175
3810	0.00705614
3822	0.00849451
3834	0.00803314
3846	0.0075175
3858	0.00787031
3870	0.00719183
3882	0.00830453
3894	0.00762606
3906	0.00762606
3918	0.00689331
3930	0.00732753
3942	0.00773461
3954	0.00797887
3966	0.00936295
