Infrared Spectrum: 3-Mercaptopropionic acid
Formula: C 3 H 6 O 2 S
CAS: 107-96-0
State: gas
Instrument: HP-GC/MS/IRD
Origin: NIST Mass Spectrometry Data Center
1/CM	ABSORBANCE
550	0.0016164
562	0.0024642
574	0.0028332
586	0.0032004
598	0.0033966
610	0.0038178
622	0.003834
634	0.0030384
646	0.0022626
658	0.0017424
670	0.0014256
682	0.001035
694	0.00081
706	0.0006408
718	0.000441
730	0.0003708
742	0.0004806
754	0.0005562
766	0.0004644
778	0.000279
790	0.000153
802	5.58e-05
814	4.68e-05
826	9.9e-05
838	0.0001152
850	0.0001512
862	0.0001278
874	0.0001638
886	0.0002178
898	0.0002016
910	0.0001818
922	0.000252
934	0.0003168
946	0.0003996
958	0.0004986
970	0.000612
982	0.000693
994	0.0008208
1006	0.0009162
1018	0.0011322
1030	0.0014508
1042	0.0016362
1054	0.001656
1066	0.0018108
1078	0.0024174
1090	0.0038808
1102	0.0070542
1114	0.0122418
1126	0.0140418
1138	0.010008
1150	0.0057132
1162	0.0041922
1174	0.0037944
1186	0.0037476
1198	0.0034938
1210	0.0029574
1222	0.00252
1234	0.0021672
1246	0.0019404
1258	0.0017514
1270	0.0017316
1282	0.0016344
1294	0.0014148
1306	0.0011736
1318	0.001134
1330	0.001269
1342	0.0015732
1354	0.0021024
1366	0.0029502
1378	0.0035226
1390	0.0029952
1402	0.001908
1414	0.0014418
1426	0.0014076
1438	0.0011592
1450	0.0007272
1462	0.000369
1474	0.000216
1486	9e-05
1498	5.4e-05
1510	1.08e-05
1522	1.8e-05
1534	2.7e-05
1546	1.26e-05
1558	5.58e-05
1570	8.28e-05
1582	0.0001062
1594	6.48e-05
1606	5.04e-05
1618	5.94e-05
1630	5.94e-05
1642	9.54e-05
1654	0.0001386
1666	0.0002214
1678	0.0002592
1690	0.000369
1702	0.0005778
1714	0.0009288
1726	0.0017172
1738	0.0033066
1750	0.0063648
1762	0.011853
1774	0.0172998
1786	0.0174546
1798	0.0111762
1810	0.0049968
1822	0.0021672
1834	0.0010386
1846	0.0005742
1858	0.0003744
1870	0.0002826
1882	0.000216
1894	0.0001602
1906	0.000117
1918	9.18e-05
1930	0.0001026
1942	0.0001008
1954	8.46e-05
1966	9.18e-05
1978	7.2e-05
1990	9.54e-05
2002	8.64e-05
2014	6.48e-05
2026	3.24e-05
2038	3.96e-05
2050	5.4e-05
2062	5.94e-05
2074	5.58e-05
2086	8.1e-05
2098	5.04e-05
2110	3.78e-05
2122	7.56e-05
2134	7.02e-05
2146	6.12e-05
2158	6.66e-05
2170	9e-05
2182	7.92e-05
2194	8.64e-05
2206	8.46e-05
2218	7.74e-05
2230	0.0001026
2242	0.0001098
2254	0.0001062
2266	9e-05
2278	7.38e-05
2290	0.0001044
2302	0.0001098
2314	0.0001512
2326	0.0001494
2338	0.0001782
2350	0.0001512
2362	0.0002178
2374	0.0001512
2386	7.2e-05
2398	5.22e-05
2410	6.84e-05
2422	6.66e-05
2434	7.02e-05
2446	6.3e-05
2458	7.92e-05
2470	7.2e-05
2482	7.92e-05
2494	5.58e-05
2506	6.84e-05
2518	7.74e-05
2530	4.86e-05
2542	7.92e-05
2554	7.02e-05
2566	7.2e-05
2578	9.36e-05
2590	0.0001368
2602	0.0001368
2614	8.82e-05
2626	9.36e-05
2638	7.02e-05
2650	8.28e-05
2662	5.4e-05
2674	6.3e-05
2686	5.76e-05
2698	4.86e-05
2710	6.84e-05
2722	7.56e-05
2734	3.78e-05
2746	7.2e-05
2758	6.12e-05
2770	6.48e-05
2782	5.76e-05
2794	3.42e-05
2806	9.54e-05
2818	9.54e-05
2830	0.0001224
2842	0.0001602
2854	0.000171
2866	0.0001782
2878	0.0002412
2890	0.000252
2902	0.000369
2914	0.0005634
2926	0.0007452
2938	0.0009
2950	0.0011016
2962	0.0011484
2974	0.0009756
2986	0.0007524
2998	0.000612
3010	0.0004248
3022	0.0003204
3034	0.0002088
3046	0.0001944
3058	0.0001116
3070	0.0001206
3082	0.0001026
3094	9.18e-05
3106	8.82e-05
3118	0.0001116
3130	7.56e-05
3142	5.58e-05
3154	8.46e-05
3166	5.76e-05
3178	0.0001098
3190	9e-05
3202	8.82e-05
3214	9e-05
3226	7.2e-05
3238	0.0001152
3250	7.74e-05
3262	8.82e-05
3274	7.38e-05
3286	9.9e-05
3298	8.28e-05
3310	7.74e-05
3322	0.0001422
3334	9.18e-05
3346	8.46e-05
3358	7.38e-05
3370	9.18e-05
3382	0.0001224
3394	0.0001152
3406	8.82e-05
3418	0.0001332
3430	0.0001746
3442	0.0001746
3454	0.0001152
3466	0.0001512
3478	0.0002016
3490	0.000234
3502	0.000234
3514	0.000315
3526	0.0004158
3538	0.0006354
3550	0.0011034
3562	0.0039132
3574	0.0064368
3586	0.0048204
3598	0.0011772
3610	0.0004968
3622	0.0003294
3634	0.0002754
3646	0.0001998
3658	0.0002088
3670	0.0001998
3682	0.0001188
3694	0.0001188
3706	0.0001188
3718	0.000144
3730	0.0001242
3742	9.18e-05
3754	0.000144
3766	0.0001314
3778	9e-05
3790	0.0001548
3802	0.0001584
3814	0.000135
3826	0.000162
3838	0.0001206
