Infrared Spectrum: 2-IMIDAZOLIDINETHIONE
Formula: C3 H6 N2 S
CAS: 96-45-7
State: SOLID (SPLIT MULL, FLUOROLUBE FOR 3800-1333 AND NUJOL FOR 1333-400 CM ^-^1)
Melting point: 191 C
Class: COBLENTZ III
Instrument: DOW KBr FOREPRISM-GRATING
Instrument parameters: BLAZED AT 3.5, 12.0, 20.0 MICRON, CHANGED AT 5.0, 7.5, 14.9 MICRON
Sampling: TRANSMISSION
Resolution: 4
Origin: DOW CHEMICAL COMPANY
1/CM	TRANSMITTANCE
452.396	0.796
460.797	0.802
469.198	0.805
477.598	0.805
485.999	0.802
494.4	0.789
502.801	0.742
511.201	0.498
519.602	0.784
528.003	0.79
536.404	0.789
544.805	0.783
553.205	0.774
561.606	0.748
570.007	0.699
578.408	0.606
586.809	0.526
595.209	0.514
603.61	0.556
612.011	0.629
620.412	0.725
628.812	0.78
637.213	0.812
645.614	0.824
654.015	0.821
662.416	0.795
670.816	0.713
679.217	0.61
687.618	0.606
696.019	0.726
704.419	0.763
712.82	0.757
721.221	0.718
729.622	0.741
738.023	0.758
746.423	0.774
754.824	0.784
763.225	0.792
771.626	0.797
780.027	0.803
788.427	0.811
796.828	0.815
805.229	0.818
813.63	0.816
822.03	0.816
830.431	0.816
838.832	0.815
847.233	0.815
855.634	0.818
864.034	0.818
872.435	0.818
880.836	0.815
889.237	0.812
897.637	0.806
906.038	0.8
914.439	0.777
922.84	0.4921
931.241	0.803
939.641	0.806
948.042	0.803
956.443	0.797
964.844	0.792
973.245	0.78
981.645	0.777
990.046	0.761
998.447	0.702
1006.85	0.588
1015.25	0.771
1023.65	0.77
1032.05	0.763
1040.45	0.75
1048.85	0.71
1057.25	0.741
1065.65	0.738
1074.05	0.731
1082.45	0.728
1090.86	0.728
1099.26	0.725
1107.66	0.726
1116.06	0.731
1124.46	0.734
1132.86	0.722
1141.26	0.707
1149.66	0.7
1158.06	0.694
1166.46	0.678
1174.86	0.658
1183.26	0.61
1191.66	0.54
1200.07	0.396
1208.47	0.216
1216.87	0.4118
1225.27	0.638
1233.67	0.688
1242.07	0.688
1250.47	0.674
1258.87	0.63
1267.27	0.549
1275.67	0.3509
1284.07	0.306
1292.47	0.549
1300.88	0.479
1309.28	0.379
1317.68	0.433
1326.08	0.587
1334.48	0.662
1342.88	0.668
1351.28	0.69
1359.68	0.648
1368.08	0.62
1376.48	0.7161
1384.88	0.795
1393.28	0.78
1401.68	0.77
1410.09	0.755
1418.49	0.735
1426.89	0.716
1435.29	0.691
1443.69	0.635
1452.09	0.5269
1460.49	0.361
1468.89	0.4629
1477.29	0.607
1485.69	0.466
1494.09	0.241
1502.49	0.212
1510.89	0.395
1519.3	0.186
1527.7	0.2581
1536.1	0.5951
1544.5	0.838
1552.9	0.911
1561.3	0.959
1569.7	0.975
1578.1	0.975
1586.5	0.97
1594.9	0.965
1603.3	0.954
1611.7	0.952
1620.1	0.949
1628.51	0.952
1636.91	0.957
1645.31	0.959
1653.71	0.941
1662.11	0.921
1670.51	0.912
1678.91	0.901
1687.31	0.889
1695.71	0.879
1704.11	0.869
1712.51	0.859
1720.91	0.859
1729.32	0.869
1737.72	0.87
1746.12	0.867
1754.52	0.863
1762.92	0.859
1771.32	0.854
1779.72	0.848
1788.12	0.843
1796.52	0.841
1804.92	0.84
1813.32	0.835
1821.72	0.831
1830.12	0.829
1838.53	0.828
1846.93	0.824
1855.33	0.821
1863.73	0.816
1872.13	0.815
1880.53	0.813
1888.93	0.812
1897.33	0.811
1905.73	0.808
1914.13	0.806
1922.53	0.805
1930.93	0.803
1939.33	0.8
1947.74	0.799
1956.14	0.799
1964.54	0.796
1972.94	0.793
1981.34	0.796
1989.74	0.796
1998.14	0.796
2006.54	0.795
2014.94	0.793
2023.34	0.792
2031.74	0.789
2040.14	0.786
2048.54	0.7829
2056.95	0.7795
2065.35	0.774
2073.75	0.771
2082.15	0.767
2090.55	0.7634
2098.95	0.76
2107.35	0.7558
2115.75	0.752
2124.15	0.7488
2132.55	0.747
2140.95	0.7428
2149.35	0.738
2157.75	0.7331
2166.16	0.729
2174.56	0.7237
2182.96	0.7189
2191.36	0.7137
2199.76	0.709
2208.16	0.7063
2216.56	0.7038
2224.96	0.7007
2233.36	0.6968
2241.76	0.6916
2250.16	0.6856
2258.56	0.6803
2266.97	0.6766
2275.37	0.6726
2283.77	0.668
2292.17	0.665
2300.57	0.6618
2308.97	0.661
2317.37	0.661
2325.77	0.659
2334.17	0.6575
2342.57	0.655
2350.97	0.652
2359.37	0.652
2367.77	0.652
2376.18	0.6494
2384.58	0.648
2392.98	0.646
2401.38	0.645
2409.78	0.643
2418.18	0.6414
2426.58	0.639
2434.98	0.6373
2443.38	0.636
2451.78	0.635
2460.18	0.633
2468.58	0.632
2476.98	0.63
2485.39	0.6283
2493.79	0.626
2502.19	0.6226
2510.59	0.6191
2518.99	0.6152
2527.39	0.6131
2535.79	0.6082
2544.19	0.6031
2552.59	0.5946
2560.99	0.5852
2569.39	0.579
2577.79	0.5879
2586.19	0.6019
2594.6	0.607
2603	0.6051
2611.4	0.6011
2619.8	0.598
2628.2	0.595
2636.6	0.591
2645	0.587
2653.4	0.581
2661.8	0.577
2670.2	0.575
2678.6	0.574
2687	0.572
2695.41	0.566
2703.81	0.565
2712.21	0.565
2720.61	0.563
2729.01	0.562
2737.41	0.5599
2745.81	0.556
2754.21	0.555
2762.61	0.5499
2771.01	0.5438
2779.41	0.539
2787.81	0.5348
2796.21	0.5299
2804.62	0.5248
2813.02	0.518
2821.42	0.514
2829.82	0.5049
2838.22	0.4962
2846.62	0.4806
2855.02	0.4621
2863.42	0.4468
2871.82	0.429
2880.22	0.3988
2888.62	0.4037
2897.02	0.443
2905.42	0.4998
2913.83	0.5138
2922.23	0.511
2930.63	0.508
2939.03	0.505
2947.43	0.5
2955.83	0.497
2964.23	0.497
2972.63	0.5
2981.03	0.4933
2989.43	0.488
2997.83	0.485
3006.23	0.4817
3014.63	0.4712
3023.04	0.4635
3031.44	0.4584
3039.84	0.4522
3048.24	0.4467
3056.64	0.4376
3065.04	0.4294
3073.44	0.4184
3081.84	0.4094
3090.24	0.4015
3098.64	0.392
3107.04	0.3803
3115.44	0.369
3123.84	0.3574
3132.25	0.3432
3140.65	0.3275
3149.05	0.3156
3157.45	0.3021
3165.85	0.2871
3174.25	0.2736
3182.65	0.2594
3191.05	0.2482
3199.45	0.2332
3207.85	0.2203
3216.25	0.2031
3224.65	0.1902
3233.06	0.1643
3241.46	0.1451
3249.86	0.1513
3258.26	0.1778
3266.66	0.2063
3275.06	0.2319
3283.46	0.2385
3291.86	0.2599
3300.26	0.3012
3308.66	0.408
3317.06	0.4965
3325.46	0.55
3333.86	0.5751
3342.27	0.5971
3350.67	0.6132
3359.07	0.6291
3367.47	0.6466
3375.87	0.6621
3384.27	0.6731
3392.67	0.6771
3401.07	0.6791
3409.47	0.678
3417.87	0.677
3426.27	0.677
3434.67	0.6728
3443.07	0.6667
3451.48	0.6584
3459.88	0.6459
3468.28	0.6362
3476.68	0.6259
3485.08	0.6171
3493.48	0.607
3501.88	0.5991
3510.28	0.5925
3518.68	0.5857
3527.08	0.5788
3535.48	0.5727
3543.88	0.5677
3552.28	0.563
3560.69	0.5618
3569.09	0.558
3577.49	0.5528
3585.89	0.549
3594.29	0.5458
3602.69	0.543
3611.09	0.5368
3619.49	0.5333
3627.89	0.531
3636.29	0.5293
3644.69	0.5237
3653.09	0.521
3661.5	0.52
3669.9	0.515
3678.3	0.513
3686.7	0.511
3695.1	0.508
3703.5	0.507
3711.9	0.5034
3720.3	0.501
3728.7	0.498
3737.1	0.4942
3745.5	0.491
3753.9	0.489
3762.3	0.486
3770.71	0.485
3779.11	0.481
