Infrared Spectrum: ETHYL THIOCYANATE
Formula: C3 H5 N S
CAS: 542-90-5
State: LIQUID
Boiling point: 144-145 C
Class: COBLENTZ
Instrument: Not specified, most likely a prism, grating, or hybrid spectrometer.
Sampling: TRANSMISSION
Path length: 0.005 CM
Resolution: 4
Origin: WYANDOTTE CHEMICALS CORP., WYANDOTTE, MICHIGAN, USA
MICROMETERS	TRANSMITTANCE
2.041	0.969
2.08186	0.971
2.12271	0.967
2.16357	0.942
2.20442	0.789
2.24528	0.857
2.28614	0.823
2.32699	0.865
2.36785	0.913
2.4087	0.891
2.44956	0.865
2.49042	0.908
2.53127	0.925
2.57213	0.942
2.61298	0.938
2.65384	0.938
2.6947	0.925
2.73555	0.84
2.77641	0.841
2.81726	0.826
2.85812	0.833
2.89898	0.862
2.93983	0.85
2.98069	0.784
3.02154	0.819
3.0624	0.785
3.10326	0.778
3.14411	0.75
3.18497	0.734
3.22582	0.7
3.26668	0.641
3.30754	0.551
3.34839	0.064
3.38925	0.081
3.4301	0.12
3.47096	0.301
3.51182	0.214
3.55267	0.423
3.59353	0.712
3.63438	0.77
3.67524	0.756
3.7161	0.789
3.75695	0.812
3.79781	0.85
3.83866	0.833
3.87952	0.84
3.92038	0.85
3.96123	0.777
4.00209	0.84
4.04294	0.816
4.0838	0.802
4.12466	0.835
4.16551	0.804
4.20637	0.829
4.24722	0.855
4.28808	0.87
4.32894	0.877
4.36979	0.865
4.41065	0.855
4.4515	0.85
4.49236	0.823
4.53322	0.765
4.57407	0.675
4.61493	0.62
4.65578	0.455
4.69664	0.253
4.73749	0.049
4.77835	0.365
4.81921	0.394
4.86006	0.542
4.90092	0.668
4.94177	0.719
4.98263	0.756
5.02349	0.799
5.06434	0.823
5.1052	0.835
5.14605	0.85
5.18691	0.84
5.22777	0.816
5.26862	0.831
5.30948	0.828
5.35033	0.855
5.39119	0.865
5.43205	0.872
5.4729	0.87
5.51376	0.865
5.55461	0.865
5.59547	0.865
5.63633	0.858
5.67718	0.85
5.71804	0.826
5.75889	0.792
5.79975	0.721
5.84061	0.654
5.88146	0.551
5.92232	0.508
5.96317	0.564
6.00403	0.624
6.04489	0.651
6.08574	0.654
6.1266	0.659
6.16745	0.664
6.20831	0.664
6.24917	0.664
6.29002	0.678
6.33088	0.651
6.37173	0.612
6.41259	0.551
6.45345	0.513
6.4943	0.501
6.53516	0.489
6.57601	0.474
6.61687	0.506
6.65773	0.505
6.69858	0.452
6.73944	0.38
6.78029	0.214
6.82115	0.062
6.86201	0.034
6.90286	0.051
6.94372	0.093
6.98457	0.057
7.02543	0.204
7.06629	0.353
7.10714	0.397
7.148	0.36
7.18885	0.241
7.22971	0.056
7.27057	0.231
7.31142	0.491
7.35228	0.564
7.39313	0.542
7.43399	0.45
7.47485	0.476
7.5157	0.52
7.55656	0.561
7.59741	0.511
7.63827	0.411
7.67913	0.299
7.71998	0.231
7.76084	0.142
7.80169	0.049
7.84255	0.03
7.88341	0.032
7.92426	0.044
7.96512	0.093
8.00597	0.115
8.04683	0.146
8.08769	0.251
8.12854	0.35
8.1694	0.421
8.21025	0.505
8.25111	0.554
8.29197	0.6
8.33282	0.634
8.37368	0.653
8.41453	0.683
8.45539	0.702
8.49625	0.71
8.5371	0.704
8.57796	0.709
8.61881	0.71
8.65967	0.704
8.70053	0.683
8.74138	0.692
8.78224	0.7
8.82309	0.698
8.86395	0.7
8.90481	0.697
8.94566	0.683
8.98652	0.67
9.02737	0.664
9.06823	0.654
9.10909	0.649
9.14994	0.637
9.1908	0.613
9.23165	0.581
9.27251	0.52
9.31337	0.404
9.35422	0.18
9.39508	0.076
9.43593	0.251
9.47679	0.409
9.51765	0.472
9.5585	0.54
9.59936	0.588
9.64021	0.61
9.68107	0.615
9.72193	0.61
9.76278	0.591
9.80364	0.59
9.84449	0.607
9.88535	0.619
9.9262	0.615
9.96706	0.603
10.0079	0.591
10.0488	0.573
10.0896	0.53
10.1305	0.471
10.1713	0.377
10.2122	0.21
10.2531	0.074
10.2939	0.034
10.3348	0.035
10.3756	0.056
10.4165	0.176
10.4573	0.287
10.4982	0.38
10.539	0.459
10.5799	0.501
10.6208	0.537
10.6616	0.544
10.7025	0.581
10.7433	0.627
10.7842	0.661
10.825	0.681
10.8659	0.692
10.9067	0.698
10.9476	0.71
10.9885	0.726
11.0293	0.732
11.0702	0.744
11.111	0.753
11.1519	0.763
11.1927	0.765
11.2336	0.772
11.2745	0.772
11.3153	0.772
11.3562	0.773
11.397	0.773
11.4379	0.773
11.4787	0.772
11.5196	0.77
11.5604	0.772
11.6013	0.768
11.6422	0.763
11.683	0.765
11.7239	0.763
11.7647	0.761
11.8056	0.753
11.8464	0.751
11.8873	0.739
11.9281	0.734
11.969	0.729
12.0099	0.709
12.0507	0.697
12.0916	0.681
12.1324	0.654
12.1733	0.632
12.2141	0.596
12.255	0.574
12.2959	0.561
12.3367	0.554
12.3776	0.552
12.4184	0.551
12.4593	0.545
12.5001	0.532
12.541	0.5
12.5818	0.457
12.6227	0.409
12.6636	0.35
12.7044	0.29
12.7453	0.241
12.7861	0.187
12.827	0.122
12.8678	0.071
12.9087	0.054
12.9495	0.054
12.9904	0.079
13.0313	0.159
13.0721	0.26
13.113	0.34
13.1538	0.409
13.1947	0.467
13.2355	0.513
13.2764	0.559
13.3173	0.59
13.3581	0.612
13.399	0.632
13.4398	0.647
13.4807	0.658
13.5215	0.668
13.5624	0.673
13.6032	0.681
13.6441	0.685
13.685	0.698
13.7258	0.698
13.7667	0.702
13.8075	0.705
13.8484	0.707
13.8892	0.712
13.9301	0.714
13.9709	0.715
14.0118	0.714
14.0527	0.719
14.0935	0.719
14.1344	0.721
14.1752	0.715
14.2161	0.715
14.2569	0.714
14.2978	0.705
14.3387	0.7
14.3795	0.695
14.4204	0.683
14.4612	0.663
14.5021	0.644
14.5429	0.613
14.5838	0.591
14.6246	0.562
14.6655	0.552
14.7064	0.562
14.7472	0.583
14.7881	0.602
14.8289	0.625
14.8698	0.632
14.9106	0.639
14.9515	0.647
14.9923	0.637
15.0332	0.636
15.0741	0.637
15.1149	0.636
15.1558	0.634
15.1966	0.615
15.2375	0.6
15.2783	0.586
15.3192	0.562
15.3601	0.559
15.4009	0.554
15.4418	0.562
15.4826	0.569
15.5235	0.573
15.5643	0.578
15.6052	0.574
15.646	0.574
15.6869	0.571
15.7278	0.554
15.7686	0.557
15.8095	0.549
15.8503	0.537
15.8912	0.527
15.932	0.522
15.9729	0.517
