Infrared Spectrum: 2,2-Dimethyl-1-propanol
Formula: C5 H12 O
CAS: 75-84-3
State: SOLUTION (10% CCl4 FOR 3800-1340, 10% CS2 FOR 1340-450 CM^-^1)
Class: COBLENTZ III
Instrument: DOW KBr FOREPRISM-GRATING
Instrument parameters: BLAZED AT 3.5, 12.0, 20.0 MICRON AND CHANGED AT 5.0, 7.5, 14.9 MICRON
Sampling: TRANSMISSION
Path length: 0.011 CM, 0.011 CM
Resolution: 2
Origin: DOW CHEMICAL COMPANY
1/CM	TRANSMITTANCE
3800	0.9138
3791	0.9141
3782	0.9124
3773	0.9151
3764	0.9165
3755	0.9173
3746	0.9183
3737	0.9218
3728	0.9241
3719	0.9241
3710	0.9259
3701	0.9239
3692	0.9147
3683	0.902
3674	0.8906
3665	0.8774
3656	0.8615
3647	0.8184
3638	0.6063
3629	0.5252
3620	0.5964
3611	0.6976
3602	0.7793
3593	0.8013
3584	0.8042
3575	0.7695
3566	0.7427
3557	0.7118
3548	0.6359
3539	0.5761
3530	0.5205
3521	0.4754
3512	0.4373
3503	0.4075
3494	0.3796
3485	0.3502
3476	0.3169
3467	0.282
3458	0.2529
3449	0.231
3440	0.212
3431	0.1938
3422	0.1776
3413	0.1617
3404	0.1424
3395	0.1272
3386	0.1154
3377	0.1039
3368	0.0961
3359	0.0933
3350	0.0917
3341	0.0919
3332	0.0977
3323	0.1081
3314	0.1208
3305	0.1357
3296	0.1514
3287	0.1693
3278	0.1929
3269	0.2247
3260	0.2596
3251	0.2986
3242	0.3326
3233	0.3621
3224	0.3899
3215	0.4195
3206	0.4578
3197	0.5089
3188	0.5441
3179	0.5739
3170	0.6037
3161	0.6317
3152	0.6589
3143	0.6832
3134	0.7059
3125	0.7257
3116	0.7428
3107	0.7559
3098	0.769
3089	0.7777
3080	0.783
3071	0.7918
3062	0.794
3053	0.797
3044	0.8023
3035	0.8047
3026	0.7952
3017	0.7731
3008	0.7169
2999	0.658
2990	0.4675
2981	0.2136
2972	0.0338
2963	0.0092
2954	0.0006
2945	0.0073
2936	0.0236
2927	0.0458
2918	0.0693
2909	0.0669
2900	0.0707
2891	0.105
2882	0.1165
2873	0.0509
2864	0.0304
2855	0.1361
2846	0.3223
2837	0.3986
2828	0.5095
2819	0.5442
2810	0.5747
2801	0.6362
2792	0.6818
2783	0.7099
2774	0.7266
2765	0.7393
2756	0.7417
2747	0.7396
2738	0.747
2729	0.7545
2720	0.7394
2711	0.7183
2702	0.7367
2693	0.7714
2684	0.8012
2675	0.8198
2666	0.8321
2657	0.8399
2648	0.8417
2639	0.8428
2630	0.8451
2621	0.8481
2612	0.8502
2603	0.8521
2594	0.8542
2585	0.8559
2576	0.859
2567	0.8653
2558	0.873
2549	0.8782
2540	0.8831
2531	0.8852
2522	0.8874
2513	0.8894
2504	0.8911
2495	0.8919
2486	0.8928
2477	0.8947
2468	0.8948
2459	0.8947
2450	0.8937
2441	0.8947
2432	0.8947
2423	0.8936
2414	0.8925
2405	0.8926
2396	0.8914
2387	0.8919
2378	0.8951
2369	0.8959
2360	0.8962
2351	0.8994
2342	0.9001
2333	0.9
2324	0.904
2315	0.9033
2306	0.8983
2297	0.8948
2288	0.8931
2279	0.8942
2270	0.8961
2261	0.8985
2252	0.9004
2243	0.8994
2234	0.8998
2225	0.9014
2216	0.902
2207	0.9038
2198	0.9056
2189	0.9053
2180	0.9061
2171	0.9083
2162	0.9071
2153	0.9064
2144	0.9057
2135	0.9034
2126	0.9006
2117	0.8924
2108	0.8887
2099	0.8882
2090	0.8877
2081	0.89
2072	0.8887
2063	0.8859
2054	0.8878
2045	0.8877
2036	0.89
2027	0.8925
2018	0.8937
2009	0.8942
2000	0.8951
1991	0.8955
1982	0.8983
1973	0.9003
1964	0.9
1955	0.8975
1946	0.8937
1937	0.8955
1928	0.8972
1919	0.8965
1910	0.8956
1901	0.8975
1892	0.8992
1883	0.8992
1874	0.8999
1865	0.8985
1856	0.8974
1847	0.8948
1838	0.8932
1829	0.8926
1820	0.8936
1811	0.8962
1802	0.8895
1793	0.8922
1784	0.8955
1775	0.8967
1766	0.8989
1757	0.9011
1748	0.8988
1739	0.8908
1730	0.8896
1721	0.8895
1712	0.8911
1703	0.8922
1694	0.893
1685	0.8929
1676	0.8925
1667	0.8925
1658	0.8909
1649	0.8881
1640	0.8847
1631	0.885
1622	0.8781
1613	0.8764
1604	0.853
1595	0.7953
1586	0.7965
1577	0.7919
1568	0.7821
1559	0.7535
1550	0.7322
1541	0.783
1532	0.7817
1523	0.7759
1514	0.7731
1505	0.7538
1496	0.7018
1487	0.2992
1478	0.1612
1469	0.279
1460	0.3191
1451	0.4533
1442	0.581
1433	0.5987
1424	0.5956
1415	0.5627
1406	0.4726
1397	0.3378
1388	0.4229
1379	0.4965
1370	0.243
1361	0.305
1352	0.6077
1343	0.6307
1334	0.6505
1325	0.677
1316	0.7052
1307	0.7278
1298	0.7192
1289	0.5995
1280	0.6155
1271	0.6721
1262	0.6886
1253	0.6968
1244	0.7673
1235	0.8202
1226	0.8326
1217	0.6931
1208	0.6851
1199	0.6801
1190	0.5964
1181	0.5616
1172	0.6341
1163	0.7035
1154	0.7405
1145	0.7971
1136	0.8535
1127	0.8896
1118	0.912
1109	0.9196
1100	0.9159
1091	0.8988
1082	0.8489
1073	0.6711
1064	0.2863
1055	0.0344
1046	0.0222
1037	0.1369
1028	0.3767
1019	0.0891
1010	0.0581
1001	0.4522
992	0.7664
983	0.8457
974	0.8803
965	0.9037
956	0.9089
947	0.8977
938	0.7698
929	0.7432
920	0.8673
911	0.7529
902	0.6992
893	0.7568
884	0.8917
875	0.9163
866	0.9078
857	0.915
848	0.9222
839	0.9091
830	0.909
821	0.9069
812	0.9019
803	0.8988
794	0.8906
785	0.8747
776	0.8584
767	0.843
758	0.8183
749	0.7282
740	0.7409
731	0.7939
722	0.7856
713	0.7667
704	0.7473
695	0.7319
686	0.7217
677	0.715
668	0.7345
659	0.7172
650	0.711
641	0.7125
632	0.7183
623	0.7225
614	0.7286
605	0.7333
596	0.74
587	0.7462
578	0.7522
569	0.7569
560	0.7567
551	0.7543
542	0.6943
533	0.6155
524	0.6995
515	0.7577
506	0.7835
497	0.7965
488	0.8027
479	0.8057
470	0.8078
461	0.8056
