Infrared Spectrum: GLYCINONITRILE, N-METHYLENE-
Formula: C3 H4 N2
CAS: 109-82-0
State: SOLID (KBr PELLET)
Class: COBLENTZ
Instrument: Not specified, most likely a prism, grating, or hybrid spectrometer.
Sampling: TRANSMISSION
Resolution: 4
Origin: TENNESSEE EASTMAN COMPANY, RESEARCH LABORATORIES
MICROMETERS	TRANSMITTANCE
2.027	0.285
2.06825	0.299
2.1095	0.32
2.15075	0.333
2.192	0.349
2.23325	0.351
2.2745	0.352
2.31574	0.364
2.35699	0.381
2.39824	0.392
2.43949	0.4
2.48074	0.41
2.52199	0.424
2.56324	0.429
2.60449	0.443
2.64574	0.467
2.68699	0.479
2.72824	0.489
2.76949	0.484
2.81073	0.477
2.85198	0.465
2.89323	0.458
2.93448	0.458
2.97573	0.488
3.01698	0.511
3.05823	0.535
3.09948	0.542
3.14073	0.559
3.18198	0.565
3.22323	0.563
3.26448	0.553
3.30572	0.553
3.34697	0.251
3.38822	0.375
3.42947	0.354
3.47072	0.26
3.51197	0.424
3.55322	0.549
3.59447	0.506
3.63572	0.517
3.67697	0.392
3.71822	0.47
3.75947	0.289
3.80072	0.465
3.84196	0.563
3.88321	0.628
3.92446	0.676
3.96571	0.708
4.00696	0.702
4.04821	0.705
4.08946	0.703
4.13071	0.724
4.17196	0.755
4.21321	0.738
4.25446	0.698
4.29571	0.7
4.33695	0.768
4.3782	0.777
4.41945	0.726
4.4607	0.63
4.50195	0.809
4.5432	0.803
4.58445	0.799
4.6257	0.818
4.66695	0.821
4.7082	0.83
4.74945	0.83
4.7907	0.832
4.83194	0.84
4.87319	0.844
4.91444	0.842
4.95569	0.84
4.99694	0.852
5.03819	0.837
5.07944	0.832
5.12069	0.842
5.16194	0.842
5.20319	0.845
5.24444	0.854
5.28569	0.861
5.32694	0.851
5.36818	0.864
5.40943	0.859
5.45068	0.864
5.49193	0.864
5.53318	0.852
5.57443	0.854
5.61568	0.864
5.65693	0.873
5.69818	0.873
5.73943	0.863
5.78068	0.864
5.82193	0.851
5.86317	0.837
5.90442	0.864
5.94567	0.857
5.98692	0.854
6.02817	0.849
6.06942	0.835
6.11067	0.823
6.15192	0.83
6.19317	0.845
6.23442	0.854
6.27567	0.866
6.31692	0.859
6.35816	0.859
6.39941	0.859
6.44066	0.837
6.48191	0.839
6.52316	0.84
6.56441	0.852
6.60566	0.842
6.64691	0.844
6.68816	0.804
6.72941	0.563
6.77066	0.589
6.81191	0.256
6.85316	0.405
6.8944	0.571
6.93565	0.212
6.9769	0.089
7.01815	0.068
7.0594	0.174
7.10065	0.452
7.1419	0.339
7.18315	0.628
7.2244	0.703
7.26565	0.645
7.3069	0.409
7.34815	0.316
7.38939	0.484
7.43064	0.388
7.47189	0.229
7.51314	0.287
7.55439	0.065
7.59564	0.053
7.63689	0.404
7.67814	0.53
7.71939	0.345
7.76064	0.578
7.80189	0.539
7.84314	0.431
7.88438	0.643
7.92563	0.748
7.96688	0.748
8.00813	0.469
8.04938	0.472
8.09063	0.724
8.13188	0.811
8.17313	0.789
8.21438	0.806
8.25563	0.821
8.29688	0.794
8.33813	0.724
8.37938	0.556
8.42062	0.244
8.46187	0.035
8.50312	0.071
8.54437	0.21
8.58562	0.03
8.62687	0.087
8.66812	0.484
8.70937	0.621
8.75062	0.628
8.79187	0.486
8.83312	0.251
8.87437	0.063
8.91561	0.034
8.95686	0.099
8.99811	0.419
9.03936	0.597
9.08061	0.522
9.12186	0.143
9.16311	0.323
9.20436	0.65
9.24561	0.75
9.28686	0.803
9.32811	0.828
9.36936	0.835
9.4106	0.794
9.45185	0.779
9.4931	0.816
9.53435	0.818
9.5756	0.803
9.61685	0.744
9.6581	0.611
9.69935	0.309
9.7406	0.053
9.78185	0.051
9.8231	0.157
9.86435	0.539
9.90559	0.69
9.94684	0.782
9.98809	0.82
10.0293	0.832
10.0706	0.833
10.1118	0.825
10.1531	0.77
10.1943	0.667
10.2356	0.491
10.2768	0.251
10.3181	0.287
10.3593	0.477
10.4006	0.589
10.4418	0.667
10.4831	0.676
10.5243	0.7
10.5656	0.702
10.6068	0.599
10.6481	0.321
10.6893	0.071
10.7306	0.089
10.7718	0.383
10.8131	0.636
10.8543	0.703
10.8956	0.712
10.9368	0.628
10.9781	0.482
11.0193	0.258
11.0606	0.077
11.1018	0.046
11.1431	0.183
11.1843	0.498
11.2256	0.698
11.2668	0.772
11.3081	0.794
11.3493	0.797
11.3906	0.773
11.4318	0.708
11.4731	0.57
11.5143	0.347
11.5556	0.143
11.5968	0.065
11.6381	0.059
11.6793	0.14
11.7206	0.342
11.7618	0.532
11.8031	0.647
11.8443	0.734
11.8856	0.797
11.9268	0.809
11.9681	0.813
12.0093	0.813
12.0506	0.818
12.0918	0.839
12.1331	0.864
12.1743	0.892
12.2155	0.916
12.2568	0.931
12.298	0.945
12.3393	0.957
12.3805	0.964
12.4218	0.965
12.463	0.967
12.5043	0.972
12.5455	0.974
12.5868	0.976
12.628	0.977
12.6693	0.984
12.7105	0.984
12.7518	0.984
12.793	0.986
12.8343	0.982
12.8755	0.984
12.9168	0.982
12.958	0.982
12.9993	0.97
13.0405	0.952
13.0818	0.933
13.123	0.929
13.1643	0.931
13.2055	0.936
13.2468	0.948
13.288	0.957
13.3293	0.967
13.3705	0.967
13.4118	0.969
13.453	0.969
13.4943	0.969
13.5355	0.967
13.5768	0.967
13.618	0.957
13.6593	0.953
13.7005	0.938
13.7418	0.936
13.783	0.933
13.8243	0.931
13.8655	0.933
13.9068	0.929
13.948	0.922
13.9893	0.919
14.0305	0.916
14.0718	0.912
14.113	0.892
14.1543	0.871
14.1955	0.842
14.2368	0.801
14.278	0.746
14.3193	0.666
14.3605	0.611
14.4018	0.606
14.443	0.654
14.4843	0.727
14.5255	0.782
14.5668	0.818
14.608	0.833
14.6493	0.842
14.6905	0.849
14.7318	0.851
14.773	0.852
14.8142	0.852
14.8555	0.852
14.8967	0.84
14.938	0.818
14.9792	0.806
15.0205	0.806
15.0617	0.799
15.103	0.77
15.1442	0.746
15.1855	0.729
15.2267	0.715
15.268	0.702
15.3092	0.691
15.3505	0.676
15.3917	0.657
15.433	0.64
15.4742	0.638
15.5155	0.638
15.5567	0.636
15.598	0.636
15.6392	0.636
15.6805	0.636
15.7217	0.635
15.763	0.626
15.8042	0.616
15.8455	0.611
15.8867	0.609
15.928	0.607
15.9692	0.607
