Infrared Spectrum: GLYCINONITRILE, N-METHYLENE-
Formula: C3 H4 N2
CAS: 109-82-0
State: SOLID (OIL MULL)
Melting point: 128-129.5 C
Class: COBLENTZ III
Instrument: BAIRD (GRATING)
Instrument parameters: NaCl PRISM
Sampling: TRANSMISSION
Resolution: 2
Origin: WYANDOTTE CHEMICALS CORP.
1/CM	TRANSMITTANCE
4000	0.4502
3991	0.451
3982	0.4525
3973	0.4538
3964	0.4552
3955	0.4567
3946	0.458
3937	0.4595
3928	0.4608
3919	0.4623
3910	0.4637
3901	0.4651
3892	0.4665
3883	0.4679
3874	0.4693
3865	0.4707
3856	0.4721
3847	0.4735
3838	0.4749
3829	0.4764
3820	0.4778
3811	0.4791
3802	0.4805
3793	0.4816
3784	0.4828
3775	0.484
3766	0.4851
3757	0.4862
3748	0.4876
3739	0.4887
3730	0.4899
3721	0.4912
3712	0.4924
3703	0.4938
3694	0.4951
3685	0.4962
3676	0.4976
3667	0.4989
3658	0.4999
3649	0.5009
3640	0.5018
3631	0.5028
3622	0.5038
3613	0.5048
3604	0.5058
3595	0.5068
3586	0.5077
3577	0.5085
3568	0.5091
3559	0.5097
3550	0.5102
3541	0.5109
3532	0.5115
3523	0.512
3514	0.5126
3505	0.5132
3496	0.5138
3487	0.5143
3478	0.5149
3469	0.5155
3460	0.516
3451	0.5166
3442	0.5171
3433	0.5172
3424	0.5172
3415	0.5172
3406	0.517
3397	0.5162
3388	0.5156
3379	0.5149
3370	0.5144
3361	0.5139
3352	0.5142
3343	0.5151
3334	0.5159
3325	0.5168
3316	0.5177
3307	0.5187
3298	0.5197
3289	0.5207
3280	0.5216
3271	0.5226
3262	0.5232
3253	0.5238
3244	0.5244
3235	0.5247
3226	0.5248
3217	0.5245
3208	0.5231
3199	0.5193
3190	0.5142
3181	0.5096
3172	0.5056
3163	0.5045
3154	0.5044
3145	0.5037
3136	0.5022
3127	0.5003
3118	0.4971
3109	0.493
3100	0.4872
3091	0.4808
3082	0.4729
3073	0.4641
3064	0.4512
3055	0.4341
3046	0.4133
3037	0.3862
3028	0.3032
3019	0.2465
3010	0.1963
3001	0.1458
2992	0.0949
2983	0.0522
2974	0.0437
2965	0.0348
2956	0.027
2947	0.0225
2938	0.0204
2929	0.0197
2920	0.0196
2911	0.0201
2902	0.0209
2893	0.0225
2884	0.0245
2875	0.0274
2866	0.0362
2857	0.0722
2848	0.1346
2839	0.2434
2830	0.3556
2821	0.4219
2812	0.4546
2803	0.4826
2794	0.501
2785	0.5203
2776	0.5395
2767	0.55
2758	0.5523
2749	0.551
2740	0.544
2731	0.5246
2722	0.4901
2713	0.4828
2704	0.4848
2695	0.4876
2686	0.4607
2677	0.4177
2668	0.3888
2659	0.3925
2650	0.4044
2641	0.4306
2632	0.4996
2623	0.5169
2614	0.5316
2605	0.5476
2596	0.5642
2587	0.5791
2578	0.5935
2569	0.6065
2560	0.6192
2551	0.6291
2542	0.6384
2533	0.6451
2524	0.6485
2515	0.6518
2506	0.6543
2497	0.6567
2488	0.6591
2479	0.661
2470	0.6625
2461	0.6642
2452	0.6664
2443	0.6686
2434	0.6708
2425	0.6751
2416	0.6795
2407	0.6843
2398	0.6891
2389	0.6938
2380	0.6983
2371	0.6996
2362	0.7003
2353	0.7008
2344	0.7012
2335	0.703
2326	0.7054
2317	0.7081
2308	0.711
2299	0.7143
2290	0.7178
2281	0.7214
2272	0.7248
2263	0.728
2254	0.7306
2245	0.7328
2236	0.7326
2227	0.7078
2218	0.6851
2209	0.6278
2200	0.6342
2191	0.6517
2182	0.6734
2173	0.6928
2164	0.7072
2155	0.7182
2146	0.7275
2137	0.7365
2128	0.7465
2119	0.7528
2110	0.758
2101	0.7632
2092	0.7683
2083	0.7735
2074	0.7789
2065	0.7842
2056	0.7896
2047	0.7949
2038	0.8004
2029	0.804
2020	0.8068
2011	0.8091
2002	0.8115
1993	0.8121
1984	0.8128
1975	0.8135
1966	0.8138
1957	0.8136
1948	0.8134
1939	0.814
1930	0.8147
1921	0.8164
1912	0.8188
1903	0.8228
1894	0.8267
1885	0.8302
1876	0.8328
1867	0.8349
1858	0.8343
1849	0.8318
1840	0.8345
1831	0.8466
1822	0.8506
1813	0.8498
1804	0.8475
1795	0.848
1786	0.8494
1777	0.852
1768	0.8552
1759	0.8583
1750	0.8575
1741	0.8566
1732	0.8553
1723	0.8541
1714	0.8528
1705	0.8517
1696	0.8505
1687	0.848
1678	0.8453
1669	0.8446
1660	0.8449
1651	0.8474
1642	0.8502
1633	0.8525
1624	0.8549
1615	0.8573
1606	0.8602
1597	0.8631
1588	0.8659
1579	0.8678
1570	0.8696
1561	0.8701
1552	0.8694
1543	0.8671
1534	0.8632
1525	0.856
1516	0.8436
1507	0.8252
1498	0.6865
1489	0.4687
1480	0.2485
1471	0.1133
1462	0.1409
1453	0.2264
1444	0.2046
1435	0.1967
1426	0.1737
1417	0.234
1408	0.4109
1399	0.4532
1390	0.4315
1381	0.2817
1372	0.3037
1363	0.3709
1354	0.477
1345	0.3489
1336	0.3425
1327	0.15
1318	0.2281
1309	0.4176
1300	0.411
1291	0.531
1282	0.5596
1273	0.5554
1264	0.6936
1255	0.6856
1246	0.4891
1237	0.6733
1228	0.7611
1219	0.7519
1210	0.7644
1201	0.7328
1192	0.5115
1183	0.1725
1174	0.1469
1165	0.1737
1156	0.1778
1147	0.5685
1138	0.6545
1129	0.3727
1120	0.1152
1111	0.3352
1102	0.5225
1093	0.3038
1084	0.6014
1075	0.6992
1066	0.7521
1057	0.7451
1048	0.7722
1039	0.7715
1030	0.567
1021	0.1438
1012	0.3121
1003	0.5734
994	0.6503
985	0.6637
976	0.5793
967	0.3392
958	0.5272
949	0.6254
940	0.5912
931	0.1834
922	0.4888
913	0.6796
904	0.4824
895	0.159
886	0.578
877	0.7225
868	0.5989
859	0.1809
850	0.2425
841	0.523
832	0.668
823	0.6939
814	0.7588
805	0.7978
796	0.8225
787	0.839
778	0.8385
769	0.8415
760	0.8246
751	0.8338
742	0.8417
733	0.8245
724	0.764
715	0.8004
706	0.861
697	0.8425
688	0.7228
679	0.8489
670	0.8594
661	0.8234
652	0.7801
643	0.7335
634	0.7185
