Infrared Spectrum: 1,4-DICHLOROBUTANE
Formula: C4 H8 Cl2
CAS: 110-56-5
Class: COBLENTZ
Instrument: Not specified, most likely a prism, grating, or hybrid spectrometer.
Sampling: TRANSMISSION
Path length: 0.0025 CM
Resolution: 4
Origin: W.T. BOLLETER
MICROMETERS	TRANSMITTANCE
14.556	0.264
14.6265	0.257
14.6969	0.217
14.7674	0.155
14.8378	0.107
14.9083	0.06
14.9787	0.026
15.0492	0.007
15.1196	0.001
15.1901	0
15.2605	0
15.331	0
15.4014	0
15.4719	0
15.5424	0
15.6128	0
15.6833	0.005
15.7537	0.021
15.8242	0.048
15.8946	0.108
15.9651	0.155
16.0355	0.2
16.106	0.241
16.1764	0.285
16.2469	0.342
16.3174	0.412
16.3878	0.478
16.4583	0.539
16.5287	0.6
16.5992	0.644
16.6696	0.678
16.7401	0.708
16.8105	0.751
16.881	0.78
16.9514	0.807
17.0219	0.832
17.0923	0.851
17.1628	0.866
17.2333	0.882
17.3037	0.892
17.3742	0.9
17.4446	0.905
17.5151	0.901
17.5855	0.889
17.656	0.867
17.7264	0.85
17.7969	0.853
17.8673	0.875
17.9378	0.903
18.0082	0.933
18.0787	0.946
18.1492	0.948
18.2196	0.941
18.2901	0.919
18.3605	0.898
18.431	0.873
18.5014	0.866
18.5719	0.866
18.6423	0.869
18.7128	0.869
18.7832	0.866
18.8537	0.858
18.9241	0.85
18.9946	0.839
19.0651	0.801
19.1355	0.76
19.206	0.723
19.2764	0.689
19.3469	0.676
19.4173	0.691
19.4878	0.708
19.5582	0.723
19.6287	0.73
19.6991	0.723
19.7696	0.703
19.8401	0.685
19.9105	0.678
19.981	0.691
20.0514	0.719
20.1219	0.755
20.1923	0.783
20.2628	0.814
20.3332	0.833
20.4037	0.848
20.4741	0.858
20.5446	0.862
20.615	0.871
20.6855	0.875
20.756	0.878
20.8264	0.883
20.8969	0.885
20.9673	0.883
21.0378	0.88
21.1082	0.876
21.1787	0.873
21.2491	0.869
21.3196	0.864
21.39	0.857
21.4605	0.853
21.5309	0.842
21.6014	0.821
21.6719	0.796
21.7423	0.753
21.8128	0.692
21.8832	0.617
21.9537	0.53
22.0241	0.451
22.0946	0.408
22.165	0.394
22.2355	0.425
22.3059	0.487
22.3764	0.596
22.4468	0.682
22.5173	0.758
22.5878	0.812
22.6582	0.853
22.7287	0.887
22.7991	0.901
22.8696	0.923
22.94	0.935
23.0105	0.946
23.0809	0.951
23.1514	0.955
23.2218	0.951
23.2923	0.937
23.3628	0.921
23.4332	0.896
23.5037	0.858
23.5741	0.81
23.6446	0.737
23.715	0.632
23.7855	0.512
23.8559	0.403
23.9264	0.333
23.9968	0.3
24.0673	0.348
24.1377	0.451
24.2082	0.585
24.2787	0.716
24.3491	0.828
24.4196	0.892
24.49	0.928
24.5605	0.951
24.6309	0.96
24.7014	0.967
24.7718	0.975
24.8423	0.973
24.9127	0.962
24.9832	0.955
25.0536	0.942
25.1241	0.932
25.1946	0.921
25.265	0.912
25.3355	0.91
25.4059	0.905
25.4764	0.901
25.5468	0.894
25.6173	0.885
25.6877	0.88
25.7582	0.867
25.8286	0.855
25.8991	0.837
25.9696	0.821
26.04	0.787
26.1105	0.773
26.1809	0.755
26.2514	0.739
26.3218	0.721
26.3923	0.708
26.4627	0.691
26.5332	0.662
26.6036	0.621
26.6741	0.558
26.7445	0.498
26.815	0.43
26.8855	0.366
26.9559	0.303
27.0264	0.267
27.0968	0.255
27.1673	0.255
27.2377	0.283
27.3082	0.326
27.3786	0.382
27.4491	0.43
27.5195	0.473
27.59	0.521
27.6604	0.541
27.7309	0.553
27.8014	0.558
27.8718	0.558
27.9423	0.555
28.0127	0.539
28.0832	0.521
28.1536	0.505
28.2241	0.489
28.2945	0.473
28.365	0.45
28.4354	0.423
28.5059	0.405
28.5763	0.375
28.6468	0.351
28.7173	0.321
28.7877	0.291
28.8582	0.262
28.9286	0.237
28.9991	0.212
29.0695	0.187
29.14	0.164
29.2104	0.153
29.2809	0.15
29.3513	0.151
29.4218	0.157
29.4923	0.173
29.5627	0.212
29.6332	0.246
29.7036	0.298
29.7741	0.353
29.8445	0.405
29.915	0.448
29.9854	0.489
30.0559	0.548
30.1263	0.573
30.1968	0.605
30.2672	0.63
30.3377	0.644
30.4082	0.657
30.4786	0.676
30.5491	0.694
30.6195	0.703
30.69	0.721
30.7604	0.728
30.8309	0.728
30.9013	0.733
30.9718	0.735
31.0422	0.737
31.1127	0.742
31.1831	0.746
31.2536	0.75
31.3241	0.753
31.3945	0.753
31.465	0.757
31.5354	0.764
31.6059	0.767
31.6763	0.769
31.7468	0.769
31.8172	0.769
31.8877	0.771
31.9581	0.771
32.0286	0.771
32.099	0.773
32.1695	0.775
32.24	0.773
32.3104	0.773
32.3809	0.775
32.4513	0.776
32.5218	0.776
32.5922	0.776
32.6627	0.778
32.7331	0.783
32.8036	0.791
32.874	0.791
32.9445	0.785
33.015	0.776
33.0854	0.766
33.1559	0.76
33.2263	0.755
33.2968	0.755
33.3672	0.76
33.4377	0.762
33.5081	0.764
33.5786	0.764
33.649	0.762
33.7195	0.762
33.7899	0.762
33.8604	0.762
33.9309	0.762
34.0013	0.762
34.0718	0.76
34.1422	0.758
34.2127	0.758
34.2831	0.755
34.3536	0.751
34.424	0.742
34.4945	0.732
34.5649	0.719
34.6354	0.71
34.7058	0.696
34.7763	0.671
34.8468	0.662
34.9172	0.658
34.9877	0.653
35.0581	0.644
35.1286	0.639
35.199	0.635
35.2695	0.625
35.3399	0.612
35.4104	0.596
35.4808	0.585
35.5513	0.573
35.6218	0.555
35.6922	0.537
35.7627	0.523
35.8331	0.514
35.9036	0.503
35.974	0.494
36.0445	0.482
36.1149	0.473
36.1854	0.462
36.2558	0.453
36.3263	0.451
36.3967	0.448
36.4672	0.441
36.5377	0.433
36.6081	0.423
36.6786	0.41
36.749	0.407
36.8195	0.405
36.8899	0.401
36.9604	0.398
37.0308	0.396
37.1013	0.394
37.1717	0.396
37.2422	0.396
37.3126	0.398
37.3831	0.398
37.4536	0.398
37.524	0.4
37.5945	0.401
37.6649	0.401
37.7354	0.401
37.8058	0.401
37.8763	0.4
37.9467	0.4
38.0172	0.405
