Infrared Spectrum: Butane, 1,4-dichloro-
Formula: C 4 H 8 Cl 2
CAS: 110-56-5
State: gas
Origin: Sadtler Research Labs Under US-EPA Contract
1/CM	ABSORBANCE
450	0.00855388
462	0.00729827
474	0.011379
486	0.0222087
498	0.0284868
510	0.0247984
522	0.0180495
534	0.0200899
546	0.0222087
558	0.011379
570	0.00918169
582	0.00878931
594	0.00463008
606	0.00627808
618	0.0169508
630	0.0550117
642	0.158522
654	0.340193
666	0.406977
678	0.153185
690	0.0447313
702	0.0426125
714	0.0845187
726	0.177042
738	0.321438
750	0.31877
762	0.283926
774	0.367189
786	0.359028
798	0.153264
810	0.0852249
822	0.0775343
834	0.0645073
846	0.0454376
858	0.040729
870	0.0505385
882	0.0460654
894	0.0375115
906	0.0273881
918	0.0354712
930	0.0644288
942	0.0663907
954	0.0356281
966	0.0383748
978	0.0717271
990	0.100999
1002	0.0857743
1014	0.0725903
1026	0.0481843
1038	0.0312334
1050	0.0262895
1062	0.0189912
1074	0.013027
1086	0.0061996
1098	0.00313904
1110	0.00353142
1122	0.00667046
1134	0.00706284
1146	0.00470856
1158	0.00651351
1170	0.00823998
1182	0.011536
1194	0.026054
1206	0.0263679
1218	0.0285653
1230	0.0273881
1242	0.0459085
1254	0.115909
1266	0.196582
1278	0.239038
1290	0.531439
1302	0.547841
1314	0.40627
1326	0.320653
1338	0.129015
1350	0.0759648
1362	0.0620745
1374	0.0405721
1386	0.0272312
1398	0.0187558
1410	0.0234643
1422	0.0553256
1434	0.148555
1446	0.316494
1458	0.31053
1470	0.139609
1482	0.0590924
1494	0.0234643
1506	0.0223657
1518	0.0102804
1530	0.00478704
1542	0.00580722
1554	0.00996645
1566	0.00486551
1578	0.00510094
1590	0.00510094
1602	0.00627808
1614	0.00761217
1626	0.00463008
1638	0.00408075
1650	0.00549332
1662	0.00580722
1674	0.00565027
1686	0.00502246
1698	0.00659198
1710	0.00408075
1722	0.00251123
1734	0.00721979
1746	0.00353142
1758	0.0036099
1770	0.00525789
1782	0.0042377
1794	0.00415923
1806	0.0039238
1818	0.00400228
1830	0.00400228
1842	0.00400228
1854	0.00298209
1866	0.00376685
1878	0.00298209
1890	0.00345294
1902	0.00345294
1914	0.00408075
1926	0.0036099
1938	0.00486551
1950	0.00455161
1962	0.00502246
1974	0.00494399
1986	0.00533637
1998	0.00455161
2010	0.00463008
2022	0.00439466
2034	0.0055718
2046	0.00635656
2058	0.0061996
2070	0.00612113
2082	0.00612113
2094	0.00651351
2106	0.00714132
2118	0.00635656
2130	0.00580722
2142	0.00408075
2154	0.00400228
2166	0.00447313
2178	0.00431618
2190	0.00470856
2202	0.00463008
2214	0.00510094
2226	0.00541484
2238	0.00533637
2250	0.00525789
2262	0.00533637
2274	0.00455161
2286	0.00408075
2298	0.00282514
2310	0.00188342
2322	0.000470856
2334	0.00078476
2346	0.00141257
2358	0.000627808
2370	0.00831846
2382	0.00643503
2394	0.00525789
2406	0.00533637
2418	0.00494399
2430	0.00439466
2442	0.00463008
2454	0.00463008
2466	0.00463008
2478	0.00478704
2490	0.00502246
2502	0.0058857
2514	0.00643503
2526	0.00502246
2538	0.00494399
2550	0.00408075
2562	0.0042377
2574	0.00415923
2586	0.00408075
2598	0.00478704
2610	0.00439466
2622	0.00502246
2634	0.00494399
2646	0.0058857
2658	0.00612113
2670	0.0081615
2682	0.0078476
2694	0.0105943
2706	0.0129485
2718	0.0140472
2730	0.0125562
2742	0.0127131
2754	0.0142826
2766	0.0128701
2778	0.0119284
2790	0.0129485
2802	0.0156167
2814	0.019619
2826	0.0263679
2838	0.0511664
2850	0.105158
2862	0.153264
2874	0.184654
2886	0.217222
2898	0.214946
2910	0.247356
2922	0.284711
2934	0.328187
2946	0.475329
2958	0.701575
2970	0.773381
2982	0.580958
2994	0.460968
3006	0.382335
3018	0.161739
3030	0.0578368
3042	0.0265249
3054	0.0184419
3066	0.0149104
3078	0.0116144
3090	0.00902474
3102	0.00792608
3114	0.00596418
3126	0.00565027
3138	0.00580722
3150	0.00502246
3162	0.00572875
3174	0.00612113
3186	0.00635656
3198	0.00627808
3210	0.00643503
3222	0.0061996
3234	0.00604265
3246	0.0061996
3258	0.00572875
3270	0.00408075
3282	0.00415923
3294	0.00502246
3306	0.00353142
3318	0.0042377
3330	0.0058857
3342	0.00431618
3354	0.00368837
3366	0.00455161
3378	0.00470856
3390	0.00439466
3402	0.00580722
3414	0.00298209
3426	0.00455161
3438	0.00353142
3450	0.00698436
3462	0.00439466
3474	0.00510094
3486	0.00533637
3498	0.00447313
3510	0.00565027
3522	0.00439466
3534	0.00470856
3546	0.00353142
3558	0.00478704
3570	0.00941712
3582	0.0039238
3594	0.00541484
3606	0.00431618
3618	0.00604265
3630	0.00910322
3642	0.00706284
3654	0.0123992
3666	0.0036099
3678	0.013027
3690	0.00918169
3702	0.0061996
3714	0.00863236
3726	0.00415923
3738	0.00651351
3750	0.00839693
3762	0.0111436
3774	0.00855388
3786	0.0039238
3798	0.00368837
3810	0.00769065
3822	0.00643503
3834	0.00627808
3846	0.00761217
3858	0.0102019
3870	0.00823998
3882	0.00941712
3894	0.0098095
3906	0.0125562
3918	0.00792608
3930	0.00714132
3942	0.00525789
3954	0.00596418
3966	0.00698436
