Infrared Spectrum: BUTANOIC ACID, 3-HYDROXY-, Beta-LACTONE
Formula: C4 H6 O2
CAS: 3068-88-0
State: LIQUID (NEAT)
Class: COBLENTZ III
Instrument: DOW KBr FOREPRISM-GRATING
Instrument parameters: BLAZED AT 3.5, 12.0, 20.0 MICRON, CHANGED AT 5.0, 7.5, 14.9 MICRON
Sampling: TRANSMISSION
Path length: CAPILLARY
Resolution: 4
Origin: DOW CHEMICAL COMPANY
1/CM	TRANSMITTANCE
382.253	0.81
391.639	0.808
401.024	0.809
410.41	0.812
419.796	0.813
429.181	0.817
438.567	0.833
447.953	0.849
457.338	0.858
466.724	0.87
476.11	0.884
485.495	0.9
494.881	0.905
504.267	0.892
513.652	0.861
523.038	0.854
532.424	0.906
541.81	0.914
551.195	0.925
560.581	0.928
569.967	0.937
579.352	0.941
588.738	0.937
598.124	0.948
607.509	0.942
616.895	0.945
626.281	0.948
635.666	0.944
645.052	0.941
654.438	0.94
663.823	0.916
673.209	0.912
682.595	0.916
691.98	0.913
701.366	0.914
710.752	0.908
720.137	0.918
729.523	0.949
738.909	0.958
748.294	0.968
757.68	0.973
767.066	0.978
776.451	0.984
785.837	0.978
795.223	0.968
804.609	0.945
813.994	0.837
823.38	0.602
832.766	0.481
842.151	0.8119
851.537	0.942
860.923	0.962
870.308	0.97
879.694	0.976
889.08	0.976
898.465	0.957
907.851	0.961
917.237	0.977
926.622	0.972
936.008	0.957
945.394	0.914
954.779	0.872
964.165	0.769
973.551	0.921
982.936	0.948
992.322	0.952
1001.71	0.93
1011.09	0.856
1020.48	0.5521
1029.86	0.6818
1039.25	0.892
1048.64	0.894
1058.02	0.856
1067.41	0.884
1076.79	0.924
1086.18	0.91
1095.56	0.864
1104.95	0.766
1114.34	0.713
1123.72	0.4491
1133.11	0.437
1142.49	0.616
1151.88	0.776
1161.26	0.88
1170.65	0.873
1180.04	0.792
1189.42	0.826
1198.81	0.826
1208.19	0.805
1217.58	0.918
1226.96	0.929
1236.35	0.921
1245.74	0.905
1255.12	0.89
1264.51	0.88
1273.89	0.852
1283.28	0.676
1292.66	0.596
1302.05	0.822
1311.44	0.882
1320.82	0.9
1330.21	0.913
1339.59	0.934
1348.98	0.849
1358.36	0.857
1367.75	0.9
1377.13	0.872
1386.52	0.652
1395.91	0.833
1405.29	0.838
1414.68	0.834
1424.06	0.849
1433.45	0.934
1442.83	0.933
1452.22	0.897
1461.61	0.93
1470.99	0.968
1480.38	0.978
1489.76	0.984
1499.15	0.986
1508.53	0.986
1517.92	0.986
1527.31	0.985
1536.69	0.986
1546.08	0.988
1555.46	0.985
1564.85	0.984
1574.23	0.98
1583.62	0.982
1593.01	0.989
1602.39	0.989
1611.78	0.981
1621.16	0.977
1630.55	0.972
1639.93	0.974
1649.32	0.965
1658.71	0.978
1668.09	0.994
1677.48	0.998
1686.86	0.997
1696.25	0.996
1705.63	0.978
1715.02	0.946
1724.4	0.865
1733.79	0.81
1743.18	0.88
1752.56	0.909
1761.95	0.854
1771.33	0.802
1780.72	0.804
1790.1	0.7599
1799.49	0.5209
1808.88	0.184
1818.26	0.098
1827.65	0.15
1837.03	0.266
1846.42	0.506
1855.8	0.757
1865.19	0.872
1874.58	0.92
1883.96	0.944
1893.35	0.956
1902.73	0.946
1912.12	0.937
1921.5	0.934
1930.89	0.954
1940.28	0.952
1949.66	0.94
1959.05	0.956
1968.43	0.977
1977.82	0.984
1987.2	0.985
1996.59	0.984
2005.98	0.984
2015.36	0.985
2024.75	0.9815
2034.13	0.978
2043.52	0.984
2052.9	0.985
2062.29	0.984
2071.68	0.985
2081.06	0.984
2090.45	0.9839
2099.83	0.98
2109.22	0.9769
2118.6	0.976
2127.99	0.977
2137.37	0.977
2146.76	0.9739
2156.15	0.97
2165.53	0.972
2174.92	0.9752
2184.3	0.978
2193.69	0.9787
2203.07	0.98
2212.46	0.9774
2221.85	0.976
2231.23	0.9733
2240.62	0.9732
2250	0.972
2259.39	0.9722
2268.77	0.976
2278.16	0.976
2287.55	0.976
2296.93	0.977
2306.32	0.9795
2315.7	0.974
2325.09	0.9847
2334.47	0.984
2343.86	0.9813
2353.25	0.978
2362.63	0.977
2372.02	0.9738
2381.4	0.973
2390.79	0.9727
2400.17	0.9692
2409.56	0.962
2418.95	0.9636
2428.33	0.9666
2437.72	0.9688
2447.1	0.969
2456.49	0.969
2465.87	0.969
2475.26	0.97
2484.64	0.969
2494.03	0.97
2503.42	0.9707
2512.8	0.972
2522.19	0.968
2531.57	0.969
2540.96	0.968
2550.34	0.969
2559.73	0.972
2569.12	0.97
2578.5	0.9724
2587.89	0.973
2597.27	0.976
2606.66	0.973
2616.04	0.973
2625.43	0.974
2634.82	0.972
2644.2	0.972
2653.59	0.9749
2662.97	0.976
2672.36	0.976
2681.74	0.976
2691.13	0.976
2700.52	0.976
2709.9	0.977
2719.29	0.976
2728.67	0.976
2738.06	0.974
2747.44	0.973
2756.83	0.974
2766.22	0.975
2775.6	0.974
2784.99	0.974
2794.37	0.974
2803.76	0.9751
2813.14	0.9759
2822.53	0.9735
2831.91	0.97
2841.3	0.9644
2850.69	0.9611
2860.07	0.9614
2869.46	0.9528
2878.84	0.95
2888.23	0.952
2897.61	0.949
2907	0.9419
2916.39	0.9216
2925.77	0.9076
2935.16	0.8894
2944.54	0.9103
2953.93	0.9049
2963.31	0.8764
2972.7	0.8501
2982.09	0.8164
2991.47	0.811
3000.86	0.8435
3010.24	0.9027
3019.63	0.9345
3029.01	0.9481
3038.4	0.958
3047.79	0.962
3057.17	0.965
3066.56	0.9674
3075.94	0.969
3085.33	0.97
3094.71	0.97
3104.1	0.97
3113.49	0.969
3122.87	0.969
3132.26	0.97
3141.64	0.97
3151.03	0.97
3160.41	0.97
3169.8	0.97
3179.18	0.97
3188.57	0.969
3197.96	0.9698
3207.34	0.968
3216.73	0.966
3226.11	0.966
3235.5	0.965
3244.88	0.966
3254.27	0.965
3263.66	0.965
3273.04	0.965
3282.43	0.968
3291.81	0.9663
3301.2	0.965
3310.58	0.964
3319.97	0.9632
3329.36	0.964
3338.74	0.964
3348.13	0.964
3357.51	0.962
3366.9	0.962
3376.28	0.961
3385.67	0.961
3395.06	0.96
3404.44	0.9571
3413.83	0.958
3423.21	0.9571
3432.6	0.9565
3441.98	0.954
3451.37	0.954
3460.76	0.954
3470.14	0.954
3479.53	0.953
3488.91	0.953
3498.3	0.952
3507.68	0.9495
3517.07	0.948
3526.46	0.945
3535.84	0.945
3545.23	0.944
3554.61	0.944
3564	0.945
3573.38	0.942
3582.77	0.9429
3592.15	0.942
3601.54	0.9393
3610.93	0.9358
3620.31	0.93
3629.7	0.93
3639.08	0.932
3648.47	0.9371
3657.85	0.944
3667.24	0.9481
3676.63	0.9536
3686.01	0.957
3695.4	0.958
3704.78	0.957
3714.17	0.9574
3723.55	0.958
3732.94	0.958
3742.33	0.958
3751.71	0.958
3761.1	0.957
3770.48	0.958
3779.87	0.9578
3789.25	0.956
