Infrared Spectrum: 1-Pentyn-3-ol
Formula: C 5 H 8 O
CAS: 4187-86-4
State: gas
Origin: Sadtler Research Labs Under US-EPA Contract
1/CM	ABSORBANCE
450	0.046075
462	0.0367874
474	0.0351186
486	0.0399074
498	0.0652305
510	0.0731395
522	0.0820642
534	0.0770577
546	0.089175
558	0.0704548
570	0.0594258
582	0.0377307
594	0.0364972
606	0.0780735
618	0.23618
630	0.72559
642	0.684449
654	0.604924
666	0.284576
678	0.123495
690	0.031418
702	0.0183574
714	0.00986802
726	0.0150923
738	0.0136411
750	0.0124076
762	0.0176318
774	0.0224933
786	0.0193733
798	0.0211147
810	0.030765
822	0.0351911
834	0.0370051
846	0.0557979
858	0.0682055
870	0.0537662
882	0.0378758
894	0.0322162
906	0.0512267
918	0.0987528
930	0.159267
942	0.214122
954	0.248297
966	0.33174
978	0.35416
990	0.317301
1002	0.300249
1014	0.369398
1026	0.401614
1038	0.345308
1050	0.309609
1062	0.279425
1074	0.207301
1086	0.179076
1098	0.236833
1110	0.254827
1122	0.218765
1134	0.143957
1146	0.101002
1158	0.0861275
1170	0.0877238
1182	0.0845312
1194	0.0875062
1206	0.100639
1218	0.123278
1230	0.149544
1242	0.212163
1254	0.2824
1266	0.265638
1278	0.188363
1290	0.173053
1302	0.152301
1314	0.172473
1326	0.192136
1338	0.219201
1350	0.259471
1362	0.288132
1374	0.27928
1386	0.232697
1398	0.161008
1410	0.0951974
1422	0.0688585
1434	0.0693664
1446	0.0935286
1458	0.1256
1470	0.11428
1482	0.0729944
1494	0.035699
1506	0.0243073
1518	0.0158179
1530	0.0111015
1542	0.0174142
1554	0.011682
1566	0.0101583
1578	0.011029
1590	0.00711078
1602	0.00732846
1614	0.0072559
1626	0.00819917
1638	0.00906987
1650	0.00718334
1662	0.00536937
1674	0.00769125
1686	0.0156727
1698	0.0203891
1710	0.0182849
1722	0.0161081
1734	0.0198812
1746	0.0214775
1758	0.0261212
1770	0.0216951
1782	0.0134234
1794	0.0142216
1806	0.00674799
1818	0.00370051
1830	0.00355539
1842	0.00210421
1854	0.000798149
1866	0.00188653
1878	0.00174142
1890	0.00312004
1902	0.00210421
1914	0.000943267
1926	0.00246701
1938	0.00304748
1950	0.00362795
1962	0.00362795
1974	0.00217677
1986	0.00152374
1998	0.00108838
2010	0.00312004
2022	0.00377307
2034	0.00486145
2046	0.00377307
2058	0.0031926
2070	0.00290236
2082	0.0044261
2094	0.00660287
2106	0.00834428
2118	0.00718334
2130	0.00616751
2142	0.00312004
2154	0.00232189
2166	0.00166886
2178	0.0012335
2190	0.00174142
2202	0.00130606
2214	0.00108838
2226	0.0012335
2238	0.0012335
2250	0.00130606
2262	0.00174142
2274	0.00239445
2286	0.00239445
2298	0.0028298
2310	0.00391819
2322	0.00624007
2334	0.00696566
2346	0.00638519
2358	0.00536937
2370	0.00798149
2382	0.0040633
2394	0.00312004
2406	0.00355539
2418	0.00457122
2430	0.00493401
2442	0.00377307
2454	0.00362795
2466	0.00304748
2478	0.00326515
2490	0.00246701
2502	0.00261212
2514	0.00275724
2526	0.0028298
2538	0.00304748
2550	0.0031926
2562	0.00428098
2574	0.00471633
2586	0.0056596
2598	0.00522425
2610	0.00478889
2622	0.00536937
2634	0.00587728
2646	0.00558704
2658	0.00805405
2670	0.00892476
2682	0.0103759
2694	0.00957779
2706	0.00834428
2718	0.00892476
2730	0.0111015
2742	0.0131332
2754	0.0152374
2766	0.0154551
2778	0.014149
2790	0.0146569
2802	0.0161807
2814	0.0185025
2826	0.023364
2838	0.033232
2850	0.0570314
2862	0.107097
2874	0.193297
2886	0.287696
2898	0.292268
2910	0.229722
2922	0.224352
2934	0.344365
2946	0.440723
2958	0.446528
2970	0.487887
2982	0.524239
2994	0.386232
3006	0.131404
3018	0.0421568
3030	0.0206068
3042	0.0156002
3054	0.0150923
3066	0.015963
3078	0.0179221
3090	0.0169788
3102	0.0121899
3114	0.0106662
3126	0.0101583
3138	0.00921499
3150	0.00703822
3162	0.00711078
3174	0.00761869
3186	0.00667543
3198	0.00500657
3210	0.00348283
3222	0.00275724
3234	0.00145118
3246	0.00181397
3258	0.00449866
3270	0.00972291
3282	0.025831
3294	0.0818466
3306	0.164781
3318	0.47294
3330	0.473157
3342	0.316938
3354	0.0340302
3366	0.0154551
3378	0.0105211
3390	0.00624007
3402	0.00536937
3414	0.00449866
3426	0.00464378
3438	0.00551448
3450	0.00536937
3462	0.0056596
3474	0.00769125
3486	0.00718334
3498	0.00979546
3510	0.0101583
3522	0.00928755
3534	0.00740102
3546	0.00877964
3558	0.00732846
3570	0.0121899
3582	0.00776381
3594	0.00921499
3606	0.00892476
3618	0.0206793
3630	0.0681329
3642	0.161226
3654	0.210566
3666	0.154043
3678	0.0579021
3690	0.0174142
3702	0.0060224
3714	0.00732846
3726	0.00696566
3738	0.0103759
3750	0.00928755
3762	0.00703822
3774	0.00682055
3786	0.0060224
3798	0.00747358
3810	0.00529681
3822	0.00609496
3834	0.00478889
3846	0.00348283
3858	0.0040633
3870	0.0056596
3882	0.00486145
3894	0.00515169
3906	0.00551448
3918	0.00478889
3930	0.00529681
3942	0.0060224
3954	0.000943267
3966	0.00130606
