Infrared Spectrum: Alpha-CHLOROACRYLIC ACID
Formula: C3 H3 Cl O2
CAS: 598-79-8
State: SOLUTION (10% CCl4 FOR 5000-1330, 10% CS2 FOR 1330-625 CM^-^1)
Class: COBLENTZ
Instrument: Not specified, most likely a prism, grating, or hybrid spectrometer.
Sampling: TRANSMISSION
Path length: 0.0119 CM, 0.0115 CM
Resolution: 4
Origin: DOW CHEMICAL COMPANY
MICROMETERS	TRANSMITTANCE
2.027	0.888
2.06812	0.89
2.10924	0.888
2.15035	0.886
2.19147	0.875
2.23259	0.869
2.27371	0.868
2.31483	0.861
2.35594	0.863
2.39706	0.863
2.43818	0.868
2.4793	0.875
2.52041	0.885
2.56153	0.883
2.60265	0.88
2.64377	0.88
2.68489	0.878
2.726	0.861
2.76712	0.851
2.80824	0.806
2.84936	0.775
2.89048	0.756
2.93159	0.686
2.97271	0.59
3.01383	0.479
3.05495	0.366
3.09607	0.27
3.13718	0.2
3.1783	0.133
3.21942	0.101
3.26054	0.089
3.30166	0.082
3.34277	0.083
3.38389	0.102
3.42501	0.087
3.46613	0.08
3.50724	0.116
3.54836	0.169
3.58948	0.205
3.6306	0.251
3.67172	0.284
3.71283	0.239
3.75395	0.222
3.79507	0.22
3.83619	0.323
3.87731	0.361
3.91842	0.273
3.95954	0.297
4.00066	0.409
4.04178	0.508
4.0829	0.58
4.12401	0.595
4.16513	0.613
4.20625	0.642
4.24737	0.664
4.28848	0.695
4.3296	0.715
4.37072	0.722
4.41184	0.726
4.45296	0.738
4.49407	0.753
4.53519	0.76
4.57631	0.76
4.61743	0.729
4.65855	0.72
4.69966	0.756
4.74078	0.78
4.7819	0.787
4.82302	0.791
4.86414	0.803
4.90525	0.792
4.94637	0.767
4.98749	0.743
5.02861	0.75
5.06973	0.78
5.11084	0.773
5.15196	0.767
5.19308	0.763
5.2342	0.761
5.27531	0.743
5.31643	0.696
5.35755	0.664
5.39867	0.724
5.43979	0.724
5.4809	0.714
5.52202	0.696
5.56314	0.676
5.60426	0.626
5.64538	0.517
5.68649	0.363
5.72761	0.34
5.76873	0.212
5.80985	0.049
5.85097	0.023
5.89208	0.027
5.9332	0.202
5.97432	0.383
6.01544	0.476
6.05656	0.5
6.09767	0.527
6.13879	0.429
6.17991	0.148
6.22103	0.114
6.26214	0.19
6.30326	0.386
6.34438	0.45
6.3855	0.441
6.42662	0.416
6.46773	0.393
6.50885	0.488
6.54997	0.537
6.59109	0.583
6.63221	0.645
6.67332	0.691
6.71444	0.647
6.75556	0.59
6.79668	0.611
6.8378	0.58
6.87891	0.482
6.92003	0.38
6.96115	0.138
7.00227	0.023
7.04338	0.083
7.0845	0.306
7.12562	0.477
7.16674	0.551
7.20786	0.556
7.24897	0.523
7.29009	0.662
7.33121	0.688
7.37233	0.693
7.41345	0.666
7.45456	0.607
7.49568	0.594
7.5368	0.626
7.57792	0.625
7.61904	0.541
7.66015	0.404
7.70127	0.236
7.74239	0.094
7.78351	0.049
7.82463	0.042
7.86574	0.035
7.90686	0.082
7.94798	0.219
7.9891	0.349
8.03021	0.457
8.07133	0.506
8.11245	0.565
8.15357	0.604
8.19469	0.619
8.2358	0.628
8.27692	0.642
8.31804	0.647
8.35916	0.647
8.40028	0.647
8.44139	0.647
8.48251	0.642
8.52363	0.614
8.56475	0.582
8.60587	0.541
8.64698	0.479
8.6881	0.397
8.72922	0.255
8.77034	0.15
8.81145	0.16
8.85257	0.154
8.89369	0.042
8.93481	0.032
8.97593	0.234
9.01704	0.477
9.05816	0.592
9.09928	0.654
9.1404	0.686
9.18152	0.703
9.22263	0.702
9.26375	0.691
9.30487	0.741
9.34599	0.784
9.38711	0.794
9.42822	0.797
9.46934	0.799
9.51046	0.799
9.55158	0.799
9.5927	0.799
9.63381	0.794
9.67493	0.791
9.71605	0.782
9.75717	0.777
9.79828	0.77
9.8394	0.77
9.88052	0.77
9.92164	0.768
9.96276	0.763
10.0039	0.76
10.045	0.751
10.0861	0.748
10.1272	0.739
10.1683	0.732
10.2095	0.722
10.2506	0.702
10.2917	0.684
10.3328	0.66
10.3739	0.63
10.4151	0.59
10.4562	0.547
10.4973	0.479
10.5384	0.404
10.5795	0.315
10.6206	0.207
10.6618	0.102
10.7029	0.034
10.744	0.013
10.7851	0.071
10.8262	0.148
10.8674	0.191
10.9085	0.214
10.9496	0.222
10.9907	0.229
11.0318	0.231
11.0729	0.231
11.1141	0.234
11.1552	0.241
11.1963	0.244
11.2374	0.248
11.2785	0.224
11.3196	0.195
11.3608	0.171
11.4019	0.186
11.443	0.25
11.4841	0.285
11.5252	0.316
11.5664	0.335
11.6075	0.349
11.6486	0.363
11.6897	0.383
11.7308	0.402
11.7719	0.424
11.8131	0.458
11.8542	0.484
11.8953	0.506
11.9364	0.522
11.9775	0.544
12.0187	0.549
12.0598	0.558
12.1009	0.563
12.142	0.568
12.1831	0.573
12.2242	0.575
12.2654	0.57
12.3065	0.563
12.3476	0.561
12.3887	0.554
12.4298	0.542
12.4709	0.522
12.5121	0.494
12.5532	0.488
12.5943	0.527
12.6354	0.633
12.6765	0.683
12.7177	0.71
12.7588	0.715
12.7999	0.715
12.841	0.712
12.8821	0.712
12.9232	0.71
12.9644	0.707
13.0055	0.7
13.0466	0.691
13.0877	0.681
13.1288	0.664
13.17	0.643
13.2111	0.625
13.2522	0.601
13.2933	0.583
13.3344	0.565
13.3755	0.542
13.4167	0.508
13.4578	0.448
13.4989	0.38
13.54	0.294
13.5811	0.195
13.6223	0.143
13.6634	0.106
13.7045	0.094
13.7456	0.121
13.7867	0.155
13.8278	0.196
13.869	0.222
13.9101	0.265
13.9512	0.332
13.9923	0.388
14.0334	0.446
14.0745	0.474
14.1157	0.501
14.1568	0.52
14.1979	0.535
14.239	0.546
14.2801	0.558
14.3213	0.565
14.3624	0.568
14.4035	0.571
14.4446	0.571
14.4857	0.571
14.5268	0.57
14.568	0.565
14.6091	0.558
14.6502	0.546
14.6913	0.534
14.7324	0.513
14.7736	0.481
14.8147	0.45
14.8558	0.424
14.8969	0.404
14.938	0.4
14.9791	0.414
15.0203	0.452
15.0614	0.464
15.1025	0.47
15.1436	0.474
15.1847	0.474
15.2258	0.472
15.267	0.47
15.3081	0.469
15.3492	0.464
15.3903	0.458
15.4314	0.452
15.4726	0.448
15.5137	0.446
15.5548	0.441
15.5959	0.434
15.637	0.426
15.6781	0.412
15.7193	0.409
15.7604	0.405
15.8015	0.4
15.8426	0.395
15.8837	0.392
