Infrared Spectrum: .alpha.-Chloroacrylic acid
Formula: C 3 H 3 Cl O 2
CAS: 598-79-8
State: gas
Origin: EPA-IR VAPOR PHASE LIBRARY
1/CM	ABSORBANCE
501.5	0.0009005
513.074	0.001689
524.648	0.002809
536.222	0.004169
547.796	0.004659
559.37	0.004899
570.944	0.004179
582.518	0.004019
594.092	0.002919
605.666	0.001659
617.24	0.0011164
628.814	0.000916
640.388	0.000852
651.962	0.0010762
663.536	0.002179
675.11	0.003849
686.684	0.005489
698.258	0.005449
709.832	0.003649
721.406	0.001709
732.98	0.0010831
744.554	0.0007172
756.128	0.0007212
767.702	0.0009656
779.276	0.001539
790.85	0.002479
802.423	0.001689
813.997	0.001409
825.571	0.0008935
837.145	0.0009442
848.719	0.001329
860.293	0.001459
871.867	0.001369
883.441	0.0008964
895.015	0.0010165
906.589	0.001789
918.163	0.002829
929.737	0.004099
941.311	0.002419
952.885	0.001439
964.459	0.0006482
976.033	0.0004368
987.607	0.0004945
999.181	0.00039819
1010.76	0.0004656
1022.33	0.0005601
1033.9	0.0006446
1045.48	0.0012807
1057.05	0.002869
1068.63	0.008139
1080.2	0.011789
1091.77	0.011719
1103.35	0.007379
1114.92	0.007309
1126.49	0.007879
1138.07	0.007519
1149.64	0.006859
1161.22	0.007999
1172.79	0.007599
1184.36	0.006259
1195.94	0.003249
1207.51	0.001769
1219.09	0.0010097
1230.66	0.00092
1242.23	0.0009227
1253.81	0.0011559
1265.38	0.001679
1276.96	0.002169
1288.53	0.002439
1300.1	0.002849
1311.68	0.003189
1323.25	0.003929
1334.83	0.004589
1346.4	0.004309
1357.97	0.003619
1369.55	0.002959
1381.12	0.003389
1392.7	0.004709
1404.27	0.004159
1415.84	0.003069
1427.42	0.0012156
1438.99	0.0006708
1450.57	0.0004647
1462.14	0.0002886
1473.71	0.000175
1485.29	8.3e-05
1496.86	1.2e-05
1508.44	3e-06
1520.01	4.9e-05
1531.58	9.8e-05
1543.16	0.0002161
1554.73	0.00033752
1566.31	0.0006354
1577.88	0.0012693
1589.45	0.002599
1601.03	0.004219
1612.6	0.004439
1624.18	0.003479
1635.75	0.001779
1647.32	0.0008961
1658.9	0.000708
1670.47	0.0007509
1682.05	0.0007817
1693.62	0.0009508
1705.19	0.001419
1716.77	0.002139
1728.34	0.002689
1739.92	0.004389
1751.49	0.010599
1763.06	0.016209
1774.64	0.019929
1786.21	0.013929
1797.79	0.008969
1809.36	0.003949
1820.93	0.002009
1832.51	0.001439
1844.08	0.0011541
1855.66	0.0010073
1867.23	0.0008488
1878.8	0.000646
1890.38	0.0004738
1901.95	0.0004149
1913.53	0.00038524
1925.1	0.00038485
1936.67	0.00038948
1948.25	0.00037478
1959.82	0.00038608
1971.4	0.00039709
1982.97	0.0004161
1994.54	0.000432
2006.12	0.0004195
2017.69	0.0004247
2029.27	0.00038861
2040.84	0.00039032
2052.41	0.0003703
2063.99	0.00035191
2075.56	0.00033311
2087.14	0.00031599
2098.71	0.00034709
2110.28	0.00035215
2121.86	0.00033903
2133.43	0.00034939
2145.01	0.00039339
2156.58	0.000405
2168.15	0.0003699
2179.73	0.00038097
2191.3	0.00034357
2202.88	0.00036132
2214.45	0.00034435
2226.02	0.00037465
2237.6	0.00038975
2249.17	0.0004246
2260.74	0.0004088
2272.32	0.0004122
2283.89	0.0004188
2295.47	0.0004172
2307.04	0.0004485
2318.61	0.0004594
2330.19	0.0004608
2341.76	0.0004606
2353.34	0.0004705
2364.91	0.0004822
2376.48	0.0004485
2388.06	0.0004507
2399.63	0.0004137
2411.21	0.0004251
2422.78	0.0004036
2434.35	0.0004113
2445.93	0.0004105
2457.5	0.0004589
2469.08	0.0004314
2480.65	0.0004417
2492.22	0.0004391
2503.8	0.000421
2515.37	0.0004132
2526.95	0.0004133
2538.52	0.0004424
2550.09	0.0004423
2561.67	0.0004007
2573.24	0.00038786
2584.82	0.0004096
2596.39	0.0004001
2607.96	0.0004111
2619.54	0.00037126
2631.11	0.0004425
2642.69	0.00036024
2654.26	0.00039276
2665.83	0.00039768
2677.41	0.000428
2688.98	0.0004405
2700.56	0.0004676
2712.13	0.0004615
2723.7	0.000431
2735.28	0.0004563
2746.85	0.0004937
2758.43	0.0004433
2770	0.0004589
2781.57	0.0004267
2793.15	0.0004771
2804.72	0.0004519
2816.3	0.0004562
2827.87	0.0004472
2839.44	0.0004393
2851.02	0.000473
2862.59	0.0005058
2874.17	0.0005245
2885.74	0.0005516
2897.31	0.0005847
2908.89	0.0005126
2920.46	0.0005217
2932.04	0.0005356
2943.61	0.0005133
2955.18	0.0004998
2966.76	0.0005459
2978.33	0.0005222
2989.91	0.0005237
3001.48	0.0005546
3013.05	0.0005572
3024.63	0.0005214
3036.2	0.0006212
3047.78	0.0006114
3059.35	0.0005511
3070.92	0.0005087
3082.5	0.0005168
3094.07	0.00051
3105.65	0.0005339
3117.22	0.0005357
3128.79	0.0005601
3140.37	0.0005606
3151.94	0.000528
3163.52	0.0005405
3175.09	0.0005154
3186.66	0.0005472
3198.24	0.0005478
3209.81	0.0005515
3221.39	0.0006029
3232.96	0.0005613
3244.53	0.0004985
3256.11	0.0004974
3267.68	0.0005027
3279.26	0.000505
3290.83	0.0005404
3302.4	0.0004786
3313.98	0.000544
3325.55	0.0005272
3337.13	0.0005053
3348.7	0.000529
3360.27	0.0004958
3371.85	0.0005059
3383.42	0.0004821
3395	0.000522
3406.57	0.0004778
3418.14	0.0004356
3429.72	0.0004952
3441.29	0.0004799
3452.86	0.000493
3464.44	0.0004693
3476.01	0.0004898
3487.59	0.0005943
3499.16	0.0005641
3510.73	0.0006766
3522.31	0.0007193
3533.88	0.0008745
3545.46	0.001449
3557.03	0.002779
3568.6	0.006249
3580.18	0.008159
3591.75	0.007249
3603.33	0.002959
3614.9	0.0008058
3626.47	0.0005966
3638.05	0.0005614
3649.62	0.00039361
3661.2	0.00037664
3672.77	0.00039304
3684.34	0.00037813
3695.92	0.00033838
3707.49	0.00035574
3719.07	0.00031498
3730.64	0.000417
3742.21	0.00039573
3753.79	0.00036299
3765.36	0.0003794
3776.94	0.000433
3788.51	0.000408
3800.08	0.0003486
3811.66	0.0004478
3823.23	0.0004487
3834.81	0.00037815
3846.38	0.00038123
3857.95	0.0004312
3869.53	0.0004673
3881.1	0.0004405
3892.68	0.00037714
3904.25	0.0004124
3915.82	0.0004649
3927.4	0.00036675
3938.97	0.00036404
3950.55	0.0003621
3962.12	0.0003974
3973.69	0.0004798
3985.27	0.0004057
3996.84	0.00038895
