Infrared Spectrum: Formic acid, propyl ester
Formula: C 4 H 8 O 2
CAS: 110-74-7
State: gas
Origin: Sadtler Research Labs Under US-EPA Contract
1/CM	ABSORBANCE
450	0.00871615
462	0.0051926
474	0.00862343
486	0.0096434
498	0.00537805
510	0.00352355
522	0.00129815
534	0.00315265
546	0.00157633
558	0.0029672
570	0.00268903
582	0.00584168
594	0.00788162
606	0.00788162
618	0.0092725
630	0.00825253
642	0.00982885
654	0.00825253
666	0.00574895
678	0.00621258
690	0.00676893
702	0.00695438
714	0.00713983
726	0.00945795
738	0.0147433
750	0.0139088
762	0.0177105
774	0.0140942
786	0.0112197
798	0.00760345
810	0.0063053
822	0.00769618
834	0.00769618
846	0.00992158
858	0.0149287
870	0.0218831
882	0.0292084
894	0.0414481
906	0.0466407
918	0.0462698
930	0.0487734
942	0.0438589
954	0.0308774
966	0.0191941
978	0.0162269
990	0.0145578
1002	0.0140942
1014	0.0142797
1026	0.0202141
1038	0.0254067
1050	0.0302284
1062	0.031712
1074	0.0316192
1086	0.0335665
1098	0.0382027
1110	0.0530387
1122	0.0816907
1134	0.146413
1146	0.313874
1158	0.581849
1170	0.857243
1182	0.843148
1194	0.514253
1206	0.158838
1218	0.0728818
1230	0.0532242
1242	0.0453425
1254	0.0410772
1266	0.0447862
1278	0.0498861
1290	0.0404281
1302	0.0310629
1314	0.0236449
1326	0.0182668
1338	0.0163196
1350	0.0171541
1362	0.0181741
1374	0.0223467
1386	0.0303211
1398	0.0288375
1410	0.0178959
1422	0.012796
1434	0.0161341
1446	0.0274466
1458	0.0421899
1470	0.0498861
1482	0.0394081
1494	0.0244794
1506	0.0140942
1518	0.00862343
1530	0.00639802
1542	0.00621258
1554	0.00565622
1566	0.00528533
1578	0.00537805
1590	0.00472897
1602	0.00500715
1614	0.00547078
1626	0.00602713
1638	0.00713983
1650	0.00788162
1662	0.0085307
1674	0.00992158
1686	0.0153924
1698	0.0289302
1710	0.0608276
1722	0.137975
1734	0.387776
1746	0.783434
1758	0.853441
1770	0.243125
1782	0.102832
1794	0.0564695
1806	0.0192868
1818	0.00917978
1830	0.00602713
1842	0.0044508
1854	0.00417263
1866	0.0040799
1878	0.003709
1890	0.00398717
1902	0.0044508
1914	0.0059344
1926	0.00639802
1938	0.00658348
1950	0.00491443
1962	0.00389445
1974	0.00324537
1986	0.00268903
1998	0.00315265
2010	0.003709
2022	0.00417263
2034	0.0051926
2046	0.00611985
2058	0.0063053
2070	0.00658348
2082	0.00639802
2094	0.00658348
2106	0.00547078
2118	0.00389445
2130	0.0033381
2142	0.00213268
2154	0.00176178
2166	0.00194723
2178	0.00157633
2190	0.00194723
2202	0.00203995
2214	0.00194723
2226	0.0018545
2238	0.00176178
2250	0.00139087
2262	0.00166905
2274	0.0022254
2286	0.00268903
2298	0.00417263
2310	0.00584168
2322	0.0077889
2334	0.00880888
2346	0.00917978
2358	0.00908705
2370	0.00584168
2382	0.00315265
2394	0.00176178
2406	0.00120542
2418	0.00120542
2430	0.0011127
2442	0.0011127
2454	0.0011127
2466	0.000463625
2478	0.0011127
2490	0.00101998
2502	0.000834525
2514	0.00101998
2526	0.0007418
2538	0.000649075
2550	0.00018545
2562	0.000649075
2574	0.00018545
2586	9.2725e-05
2598	0.000463625
2610	0.00055635
2622	0.000649075
2634	0.00055635
2646	0.000834525
2658	0.00120542
2670	0.000649075
2682	0.00166905
2694	0.00213268
2706	0.0033381
2718	0.0048217
2730	0.00574895
2742	0.00574895
2754	0.00574895
2766	0.00547078
2778	0.00528533
2790	0.0048217
2802	0.00537805
2814	0.0066762
2826	0.00880888
2838	0.0130742
2850	0.0194722
2862	0.0316192
2874	0.0500715
2886	0.0866979
2898	0.11943
2910	0.151142
2922	0.198153
2934	0.208168
2946	0.186934
2958	0.175714
2970	0.207889
2982	0.223745
2994	0.162918
3006	0.0699147
3018	0.028003
3030	0.0142797
3042	0.0092725
3054	0.00658348
3066	0.0059344
3078	0.0055635
3090	0.00584168
3102	0.0059344
3114	0.00760345
3126	0.00695438
3138	0.00435808
3150	0.00352355
3162	0.00343083
3174	0.00352355
3186	0.00268903
3198	0.00213268
3210	0.00157633
3222	0.00157633
3234	0.00101998
3246	0.00157633
3258	0.0014836
3270	0.00055635
3282	0.000463625
3294	0.0011127
3306	0.000834525
3318	9.2725e-05
3330	0.0011127
3342	0
3354	0.0011127
3366	0.00055635
3378	0.00055635
3390	0.00120542
3402	0.00129815
3414	0.00101998
3426	0.00120542
3438	0.00213268
3450	0.0029672
3462	0.00491443
3474	0.00917978
3486	0.00982885
3498	0.00528533
3510	0.00231813
3522	0.000649075
3534	0.00120542
3546	0.00166905
3558	0.00203995
3570	0.0014836
3582	0.00139087
3594	0.00176178
3606	0.00166905
3618	0.00176178
3630	0.00194723
3642	0.0033381
3654	0.00389445
3666	0.00500715
3678	0.00509988
3690	0.00389445
3702	0.0029672
3714	0.00176178
3726	0.00129815
3738	0.0011127
3750	0.00139087
3762	0.00129815
3774	0.00129815
3786	0.00129815
3798	0.0007418
3810	0.000834525
3822	0.00129815
3834	0.00129815
3846	0.00139087
3858	0.0018545
3870	0.0014836
3882	0.00157633
3894	0.00157633
3906	0.00139087
3918	0.00194723
3930	0.000834525
3942	0.000649075
3954	9.2725e-05
3966	9.2725e-05
