Infrared Spectrum: 2-Propenoic acid
Formula: C 3 H 4 O 2
CAS: 79-10-7
State: gas
Origin: Sadtler Research Labs Under US-EPA Contract
1/CM	ABSORBANCE
450	0.0159675
462	0.0196216
474	0.0385924
486	0.0208229
498	0.0216738
510	0.0231755
522	0.0262288
534	0.0253278
546	0.0442486
558	0.0577635
570	0.0962057
582	0.119832
594	0.102463
606	0.0848432
618	0.0938031
630	0.0606667
642	0.0386425
654	0.019071
666	0.0222244
678	0.00560616
690	0.0159675
702	0.0104615
714	0.004555
726	0.0104615
738	0.0065572
750	0.0142657
762	0.014566
774	0.0184202
786	0.0357893
798	0.0400941
810	0.0880467
822	0.0587646
834	0.0518069
846	0.0301331
858	0.0183702
870	0.00780858
882	0.00996095
894	0.0119131
906	0.0134648
918	0.0167184
930	0.0168185
942	0.0252277
954	0.0423465
966	0.0779356
978	0.074582
990	0.0997096
1002	0.0775352
1014	0.0954549
1026	0.0700269
1038	0.0783861
1050	0.0568625
1062	0.055511
1074	0.0515567
1086	0.0386425
1098	0.043698
1110	0.0990588
1122	0.250976
1134	0.320903
1146	0.33652
1158	0.192061
1170	0.150415
1182	0.206076
1194	0.18195
1206	0.137151
1218	0.0661227
1230	0.0383922
1242	0.0266793
1254	0.0348383
1266	0.0438982
1278	0.0357393
1290	0.0350385
1302	0.0447992
1314	0.0519571
1326	0.0544098
1338	0.0592151
1350	0.0422464
1362	0.0342376
1374	0.026379
1386	0.0359895
1398	0.0826909
1410	0.111472
1422	0.107468
1434	0.074632
1446	0.0346881
1458	0.028231
1470	0.0205726
1482	0.0134648
1494	0.0112123
1506	0.0117129
1518	0.0105115
1530	0.00755831
1542	0.0133647
1554	0.0112624
1566	0.00840924
1578	0.00931023
1590	0.0128641
1602	0.0184202
1614	0.0249274
1626	0.0342376
1638	0.0376914
1650	0.0324356
1662	0.0213234
1674	0.0184703
1686	0.0169186
1698	0.0166683
1710	0.021824
1722	0.0408949
1734	0.0893482
1746	0.21839
1758	0.431324
1770	0.407298
1782	0.50055
1794	0.191811
1806	0.0659725
1818	0.0224747
1830	0.0121634
1842	0.0101111
1854	0.010011
1866	0.00936028
1878	0.00830913
1890	0.00875963
1902	0.00835918
1914	0.00916007
1926	0.0105616
1938	0.0117629
1950	0.0130143
1962	0.0101111
1974	0.0090099
1986	0.00665732
1998	0.00675743
2010	0.00605666
2022	0.00665732
2034	0.0064571
2046	0.00670737
2058	0.00610671
2070	0.0060066
2082	0.00495545
2094	0.00545599
2106	0.00520572
2118	0.00530583
2130	0.00515567
2142	0.00465512
2154	0.00510561
2166	0.00470517
2178	0.00495545
2190	0.00515567
2202	0.00550605
2214	0.0060066
2226	0.00580638
2238	0.0060066
2250	0.00630693
2262	0.0060066
2274	0.00570627
2286	0.00470517
2298	0.00190209
2310	0.00010011
2322	0.00010011
2334	0.00145159
2346	0.00020022
2358	0.000550605
2370	0.000250275
2382	0.00260286
2394	0.00495545
2406	0.00550605
2418	0.00605666
2430	0.00570627
2442	0.0060066
2454	0.00635698
2466	0.00625688
2478	0.00615676
2490	0.00635698
2502	0.00595654
2514	0.00610671
2526	0.00585644
2538	0.00585644
2550	0.0060066
2562	0.00595654
2574	0.00580638
2586	0.00620682
2598	0.0064571
2610	0.00620682
2622	0.00575633
2634	0.00530583
2646	0.00585644
2658	0.00590649
2670	0.00575633
2682	0.00570627
2694	0.00555611
2706	0.00560616
2718	0.00555611
2730	0.00560616
2742	0.00535589
2754	0.00485533
2766	0.00540594
2778	0.00470517
2790	0.00525577
2802	0.00495545
2814	0.00505555
2826	0.00515567
2838	0.00545599
2850	0.00585644
2862	0.00575633
2874	0.00625688
2886	0.00675743
2898	0.00815897
2910	0.00815897
2922	0.00870957
2934	0.00936028
2946	0.00991089
2958	0.0101111
2970	0.0116628
2982	0.0120633
2994	0.0111122
3006	0.010962
3018	0.0111623
3030	0.0100611
3042	0.0110121
3054	0.0113124
3066	0.00931023
3078	0.00865951
3090	0.00890979
3102	0.0111623
3114	0.010912
3126	0.0102112
3138	0.00725797
3150	0.00595654
3162	0.00530583
3174	0.00495545
3186	0.00475523
3198	0.00485533
3210	0.00520572
3222	0.00505555
3234	0.00470517
3246	0.00395434
3258	0.00420462
3270	0.00420462
3282	0.0040044
3294	0.00425468
3306	0.0040044
3318	0.00390429
3330	0.00315347
3342	0.00380418
3354	0.00280308
3366	0.00345379
3378	0.00320352
3390	0.00390429
3402	0.00295325
3414	0.00305336
3426	0.00360396
3438	0.00265292
3450	0.00340374
3462	0.00365402
3474	0.00350385
3486	0.00370407
3498	0.004555
3510	0.00650715
3522	0.00710781
3534	0.00745819
3546	0.00675743
3558	0.0178696
3570	0.0962558
3582	0.133146
3594	0.112173
3606	0.069126
3618	0.0130644
3630	0.0070077
3642	0.000750825
3654	0.00780858
3666	0.00150165
3678	0.00465512
3690	0.00790869
3702	0.00315347
3714	0.00415456
3726	0.00375413
3738	0.00315347
3750	0.0104114
3762	0.000750825
3774	0.00305336
3786	0.00230253
3798	0.00605666
3810	0.00020022
3822	0.00705775
3834	0.00255281
3846	0.00315347
3858	0.00680748
3870	0.00265292
3882	0.00420462
3894	0.00215236
3906	0.00720792
3918	0.00410451
3930	0.00425468
3942	0.0030033
3954	0.00215236
3966	0.00535589
