Infrared Spectrum: 2-PROPENOIC ACID
Formula: C3 H4 O2
CAS: 79-10-7
State: SOLUTION (5% IN CCl4 FOR 3800-1300, 5% IN CS2 FOR 1300-650, AND 5% IN CCl4 FOR 650-240 CM^-^1) VERSUS SOLVENT
Class: COBLENTZ III
Instrument: PERKIN-ELMER 521 (GRATING)
Instrument parameters: FILTERS AT 3150, 2500, 2000, 1150, 700, 410; GRATING CHANGES AT 2000, 630 CM^-^1
Sampling: TRANSMISSION
Path length: 0.010, 0.010, AND 0.019 CM (CsBr CELL)
Resolution: 4
Origin: DOW CORNING CORP.
1/CM	TRANSMITTANCE
226.752	0.899
235.924	0.902
245.096	0.897
254.268	0.885
263.44	0.873
272.612	0.871
281.784	0.862
290.956	0.862
300.128	0.845
309.3	0.795
318.472	0.713
327.644	0.489
336.816	0.357
345.988	0.5687
355.16	0.7869
364.332	0.853
373.504	0.891
382.676	0.895
391.848	0.91
401.02	0.918
410.192	0.917
419.364	0.913
428.536	0.893
437.708	0.881
446.88	0.853
456.052	0.837
465.224	0.827
474.396	0.805
483.568	0.776
492.74	0.747
501.911	0.733
511.083	0.706
520.255	0.662
529.427	0.637
538.599	0.628
547.771	0.5391
556.943	0.522
566.115	0.657
575.287	0.76
584.459	0.804
593.631	0.83
602.803	0.845
611.975	0.848
621.147	0.7911
630.319	0.739
639.491	0.733
648.663	0.54
657.835	0.8548
667.007	0.902
676.179	0.928
685.351	0.935
694.523	0.931
703.695	0.937
712.867	0.937
722.039	0.926
731.211	0.926
740.383	0.925
749.555	0.911
758.727	0.9
767.899	0.893
777.071	0.888
786.243	0.877
795.415	0.873
804.587	0.837
813.759	0.5661
822.931	0.6559
832.103	0.711
841.275	0.697
850.447	0.628
859.619	0.525
868.791	0.522
877.963	0.591
887.135	0.542
896.307	0.473
905.479	0.386
914.651	0.292
923.823	0.24
932.995	0.233
942.167	0.288
951.339	0.373
960.511	0.44
969.683	0.2452
978.855	0.2048
988.027	0.1499
997.199	0.6409
1006.37	0.768
1015.54	0.783
1024.71	0.773
1033.89	0.744
1043.06	0.411
1052.23	0.742
1061.4	0.7001
1070.57	0.786
1079.75	0.864
1088.92	0.885
1098.09	0.893
1107.26	0.895
1116.43	0.884
1125.61	0.848
1134.78	0.88
1143.95	0.889
1153.12	0.875
1162.29	0.851
1171.47	0.8
1180.64	0.79
1189.81	0.78
1198.98	0.769
1208.15	0.722
1217.33	0.624
1226.5	0.391
1235.67	0.093
1244.84	0.022
1254.01	0.478
1263.19	0.548
1272.36	0.4051
1281.53	0.263
1290.7	0.091
1299.87	0.033
1309.05	0.271
1318.22	0.586
1327.39	0.714
1336.56	0.762
1345.73	0.771
1354.91	0.768
1364.08	0.743
1373.25	0.686
1382.42	0.593
1391.59	0.604
1400.77	0.6
1409.94	0.524
1419.11	0.401
1428.28	0.1373
1437.45	0.028
1446.63	0.1359
1455.8	0.428
1464.97	0.675
1474.14	0.747
1483.31	0.771
1492.49	0.79
1501.66	0.795
1510.83	0.805
1520	0.817
1529.17	0.823
1538.35	0.82
1547.52	0.812
1556.69	0.795
1565.86	0.757
1575.03	0.717
1584.21	0.677
1593.38	0.597
1602.55	0.497
1611.72	0.3731
1620.89	0.238
1630.07	0.364
1639.24	0.0821
1648.41	0.504
1657.58	0.575
1666.75	0.526
1675.93	0.451
1685.1	0.281
1694.27	0.052
1703.44	0.002
1712.61	0.004
1721.79	0.033
1730.96	0.046
1740.13	0.142
1749.3	0.339
1758.47	0.502
1767.65	0.608
1776.82	0.648
1785.99	0.668
1795.16	0.684
1804.33	0.704
1813.51	0.718
1822.68	0.732
1831.85	0.739
1841.02	0.74
1850.19	0.746
1859.36	0.751
1868.54	0.76
1877.71	0.762
1886.88	0.76
1896.05	0.762
1905.22	0.751
1914.4	0.75
1923.57	0.746
1932.74	0.732
1941.91	0.71
1951.08	0.708
1960.26	0.735
1969.43	0.764
1978.6	0.773
1987.77	0.775
1996.94	0.779
2006.12	0.794
2015.29	0.804
2024.46	0.8092
2033.63	0.813
2042.8	0.815
2051.98	0.815
2061.15	0.812
2070.32	0.8069
2079.49	0.8015
2088.66	0.7839
2097.84	0.7793
2107.01	0.7877
2116.18	0.7909
2125.35	0.7802
2134.52	0.777
2143.7	0.7621
2152.87	0.7435
2162.04	0.7431
2171.21	0.7816
2180.38	0.7871
2189.56	0.793
2198.73	0.797
2207.9	0.794
2217.07	0.7878
2226.24	0.7793
2235.42	0.7688
2244.59	0.7602
2253.76	0.755
2262.93	0.755
2272.1	0.7577
2281.28	0.7471
2290.45	0.7412
2299.62	0.74
2308.79	0.739
2317.96	0.735
2327.14	0.7269
2336.31	0.7169
2345.48	0.711
2354.65	0.7079
2363.82	0.7066
2373	0.7078
2382.17	0.7023
2391.34	0.693
2400.51	0.6805
2409.68	0.6652
2418.86	0.6592
2428.03	0.6413
2437.2	0.6304
2446.37	0.604
2455.54	0.5871
2464.72	0.5528
2473.89	0.5401
2483.06	0.5465
2492.23	0.5418
2501.4	0.51
2510.58	0.4698
2519.75	0.4158
2528.92	0.3805
2538.09	0.4157
2547.26	0.4
2556.44	0.3786
2565.61	0.3427
2574.78	0.3392
2583.95	0.3317
2593.12	0.3458
2602.3	0.3561
2611.47	0.3321
2620.64	0.3373
2629.81	0.339
2638.98	0.3176
2648.16	0.2808
2657.33	0.2251
2666.5	0.2199
2675.67	0.2733
2684.84	0.3394
2694.02	0.344
2703.19	0.3422
2712.36	0.3267
2721.53	0.3062
2730.7	0.3271
2739.88	0.3466
2749.05	0.3463
2758.22	0.3341
2767.39	0.3132
2776.56	0.3052
2785.74	0.2962
2794.91	0.281
2804.08	0.252
2813.25	0.2565
2822.42	0.2601
2831.6	0.2608
2840.77	0.2454
2849.94	0.2048
2859.11	0.1777
2868.28	0.1519
2877.46	0.139
2886.63	0.126
2895.8	0.1259
2904.97	0.1566
2914.14	0.1532
2923.31	0.1335
2932.49	0.121
2941.66	0.1364
2950.83	0.1539
2960	0.15
2969.17	0.1245
2978.35	0.1244
2987.52	0.1064
2996.69	0.1112
3005.86	0.1244
3015.03	0.124
3024.21	0.1318
3033.38	0.1405
3042.55	0.1362
3051.72	0.126
3060.89	0.1326
3070.07	0.1393
3079.24	0.1455
3088.41	0.155
3097.58	0.1599
3106.75	0.162
3115.93	0.1719
3125.1	0.1855
3134.27	0.1971
3143.44	0.2148
3152.61	0.2273
3161.79	0.2425
3170.96	0.2606
3180.13	0.2814
3189.3	0.3012
3198.47	0.3287
3207.65	0.3456
3216.82	0.3598
3225.99	0.381
3235.16	0.4057
3244.33	0.4344
3253.51	0.4553
3262.68	0.4744
3271.85	0.4909
3281.02	0.5195
3290.19	0.5431
3299.37	0.5729
3308.54	0.6001
3317.71	0.6285
3326.88	0.6464
3336.05	0.6637
3345.23	0.6856
3354.4	0.6944
3363.57	0.7258
3372.74	0.7407
3381.91	0.7583
3391.09	0.7715
3400.26	0.7856
3409.43	0.8016
3418.6	0.8103
3427.77	0.82
3436.95	0.8275
3446.12	0.841
3455.29	0.8455
3464.46	0.8521
3473.63	0.8566
3482.81	0.86
3491.98	0.864
3501.15	0.864
3510.32	0.863
3519.49	0.8598
3528.67	0.8515
3537.84	0.84
3547.01	0.8585
3556.18	0.8734
3565.35	0.8859
3574.53	0.8892
3583.7	0.8959
3592.87	0.8925
3602.04	0.892
3611.21	0.8941
3620.39	0.897
3629.56	0.899
3638.73	0.896
3647.9	0.9
3657.07	0.8947
3666.25	0.8957
3675.42	0.896
3684.59	0.9
3693.76	0.896
3702.93	0.9015
3712.11	0.9027
3721.28	0.9029
3730.45	0.908
3739.62	0.9149
3748.79	0.9145
3757.97	0.906
3767.14	0.903
3776.31	0.9
3785.48	0.9
3794.65	0.9042
3803.83	0.9036
