Infrared Spectrum: Propionamide, 3-bromo-
Formula: C3 H6 Br N O
CAS: 6320-96-3
State: FILM
Class: COBLENTZ
Instrument: PERKIN-ELMER 521 (GRATING)
Instrument parameters: FILTERS AT 3150, 2500, 2000, 1150, 700, 410. GRATING CHANGES: 2000, 630
Resolution: 2
Origin: DOW CORNING CORP.
1/CM	TRANSMITTANCE
240	0.9026
249	0.8955
258	0.9001
267	0.9037
276	0.9068
285	0.9251
294	0.9436
303	0.9487
312	0.9552
321	0.9663
330	0.9766
339	0.9824
348	0.9848
357	0.984
366	0.9826
375	0.9809
384	0.9778
393	0.973
402	0.9659
411	0.9543
420	0.9394
429	0.9202
438	0.8967
447	0.8592
456	0.817
465	0.8279
474	0.8503
483	0.8503
492	0.8414
501	0.8299
510	0.8156
519	0.7977
528	0.7792
537	0.7609
546	0.7353
555	0.7192
564	0.7216
573	0.7295
582	0.7333
591	0.7359
600	0.7361
609	0.7186
618	0.6744
627	0.6898
636	0.7197
645	0.7441
654	0.7604
663	0.7701
672	0.7977
681	0.8213
690	0.8428
699	0.8568
708	0.8659
717	0.8742
726	0.8816
735	0.8886
744	0.8918
753	0.8886
762	0.8829
771	0.8766
780	0.8712
789	0.8665
798	0.8479
807	0.8072
816	0.8148
825	0.8479
834	0.8963
843	0.9104
852	0.9153
861	0.9164
870	0.9153
879	0.9141
888	0.9133
897	0.913
906	0.9119
915	0.9107
924	0.9095
933	0.8953
942	0.8964
951	0.8971
960	0.8995
969	0.8919
978	0.8891
987	0.8831
996	0.8755
1005	0.8738
1014	0.8738
1023	0.8686
1032	0.8597
1041	0.8378
1050	0.813
1059	0.7836
1068	0.783
1077	0.8005
1086	0.7977
1095	0.7874
1104	0.77
1113	0.7494
1122	0.7301
1131	0.7292
1140	0.7546
1149	0.776
1158	0.7812
1167	0.7762
1176	0.7646
1185	0.7347
1194	0.7121
1203	0.7088
1212	0.712
1221	0.7156
1230	0.6998
1239	0.6704
1248	0.6876
1257	0.7222
1266	0.7247
1275	0.6966
1284	0.6647
1293	0.6531
1302	0.715
1311	0.7641
1320	0.765
1329	0.7582
1338	0.746
1347	0.7231
1356	0.6835
1365	0.643
1374	0.6119
1383	0.6169
1392	0.5812
1401	0.5063
1410	0.4992
1419	0.5303
1428	0.6076
1437	0.6359
1446	0.6433
1455	0.6201
1464	0.5543
1473	0.6611
1482	0.714
1491	0.726
1500	0.7317
1509	0.7346
1518	0.7338
1527	0.7271
1536	0.7123
1545	0.697
1554	0.6968
1563	0.6865
1572	0.6621
1581	0.6218
1590	0.5556
1599	0.5023
1608	0.4867
1617	0.4898
1626	0.4926
1635	0.4431
1644	0.3515
1653	0.2852
1662	0.2569
1671	0.2655
1680	0.3048
1689	0.3637
1698	0.4546
1707	0.5438
1716	0.6406
1725	0.6844
1734	0.6998
1743	0.7109
1752	0.7861
1761	0.8254
1770	0.8509
1779	0.8678
1788	0.8795
1797	0.8842
1806	0.8888
1815	0.8939
1824	0.8981
1833	0.9009
1842	0.9023
1851	0.9035
1860	0.9042
1869	0.9051
1878	0.9066
1887	0.9079
1896	0.9071
1905	0.9053
1914	0.906
1923	0.9078
1932	0.9072
1941	0.906
1950	0.9061
1959	0.9082
1968	0.9098
1977	0.9107
1986	0.9109
1995	0.9148
2004	0.9354
2013	0.9359
2022	0.9357
2031	0.9355
2040	0.9352
2049	0.9347
2058	0.9344
2067	0.9336
2076	0.9329
2085	0.9321
2094	0.9318
2103	0.9313
2112	0.9313
2121	0.9312
2130	0.9309
2139	0.9303
2148	0.9298
2157	0.9289
2166	0.9279
2175	0.9271
2184	0.9265
2193	0.9258
2202	0.9244
2211	0.9209
2220	0.9175
2229	0.9167
2238	0.9164
2247	0.9165
2256	0.9166
2265	0.9167
2274	0.917
2283	0.9172
2292	0.9172
2301	0.9166
2310	0.9159
2319	0.9148
2328	0.9138
2337	0.9131
2346	0.9129
2355	0.9126
2364	0.9123
2373	0.9118
2382	0.909
2391	0.9055
2400	0.9014
2409	0.8986
2418	0.8966
2427	0.8974
2436	0.8988
2445	0.9001
2454	0.9015
2463	0.9053
2472	0.91
2481	0.9105
2490	0.9106
2499	0.9104
2508	0.9102
2517	0.9096
2526	0.9092
2535	0.9089
2544	0.9087
2553	0.9081
2562	0.9074
2571	0.9067
2580	0.9056
2589	0.9039
2598	0.9023
2607	0.9006
2616	0.8981
2625	0.8955
2634	0.8921
2643	0.8883
2652	0.8845
2661	0.8805
2670	0.8759
2679	0.8713
2688	0.8671
2697	0.8629
2706	0.8586
2715	0.8533
2724	0.848
2733	0.8436
2742	0.8413
2751	0.8388
2760	0.8354
2769	0.8312
2778	0.8224
2787	0.8105
2796	0.8023
2805	0.8008
2814	0.8014
2823	0.8027
2832	0.8018
2841	0.7983
2850	0.7934
2859	0.7831
2868	0.7703
2877	0.7509
2886	0.7321
2895	0.7364
2904	0.7355
2913	0.7239
2922	0.7109
2931	0.691
2940	0.6436
2949	0.6421
2958	0.6693
2967	0.6556
2976	0.5924
2985	0.5685
2994	0.6289
3003	0.6815
3012	0.6872
3021	0.6799
3030	0.6755
3039	0.6762
3048	0.6889
3057	0.6935
3066	0.6881
3075	0.675
3084	0.6593
3093	0.6439
3102	0.6279
3111	0.6082
3120	0.5881
3129	0.5687
3138	0.5499
3147	0.5296
3156	0.508
3165	0.4831
3174	0.4591
3183	0.4497
3192	0.4486
3201	0.4546
3210	0.4636
3219	0.476
3228	0.4898
3237	0.5039
3246	0.51
3255	0.5108
3264	0.5083
3273	0.5034
3282	0.4979
3291	0.4922
3300	0.4844
3309	0.4765
3318	0.4695
3327	0.4662
3336	0.4675
3345	0.4739
3354	0.4791
3363	0.4836
3372	0.487
3381	0.49
3390	0.4927
3399	0.4987
3408	0.5056
3417	0.5191
3426	0.5373
3435	0.5565
3444	0.5779
3453	0.6105
3462	0.6467
3471	0.6806
3480	0.7079
3489	0.7401
3498	0.7728
3507	0.7995
3516	0.8328
3525	0.8469
3534	0.8547
3543	0.859
3552	0.8631
3561	0.8653
3570	0.8677
3579	0.8689
3588	0.8702
3597	0.8713
3606	0.872
3615	0.8723
3624	0.8727
3633	0.8728
3642	0.8728
3651	0.8728
3660	0.8729
3669	0.8728
3678	0.8727
3687	0.8725
3696	0.8724
3705	0.8723
3714	0.8722
3723	0.872
3732	0.8719
3741	0.8718
3750	0.8716
3759	0.8715
3768	0.8714
3777	0.8712
3786	0.871
3795	0.8708
3804	0.8707
3813	0.8705
