Infrared Spectrum: Bromocyclobutane
Formula: C 4 H 7 Br
CAS: 4399-47-7
State: gas
Instrument: HP-GC/MS/IRD
Origin: NIST Mass Spectrometry Data Center
1/CM	ABSORBANCE
550	0.0005648
562	0.0001776
574	0.0002952
586	9.04e-05
598	9.84e-05
610	8.8e-06
622	8.64e-05
634	0.000244
646	0.0001272
658	0.000112
670	0.0001888
682	0.0004312
694	0.0008984
706	0.0010016
718	0.0005752
730	0.0001872
742	0.0001008
754	0.0001584
766	0.0002056
778	0.0003696
790	0.0005192
802	0.0014792
814	0.0031648
826	0.003252
838	0.0012648
850	0.0002736
862	0.0002712
874	0.0001568
886	0.000272
898	0.000344
910	0.0002872
922	0.0003408
934	0.0002904
946	0.0002672
958	0.0002464
970	0.0002264
982	0.0002656
994	0.000688
1006	0.0011168
1018	0.0009456
1030	0.0003784
1042	8.8e-05
1054	4.08e-05
1066	0.000112
1078	0.0003208
1090	0.0003008
1102	0.0001608
1114	5.52e-05
1126	9.44e-05
1138	0.000168
1150	0.0002784
1162	0.0004984
1174	0.0009136
1186	0.001456
1198	0.001504
1210	0.0013272
1222	0.0018192
1234	0.0029344
1246	0.0044392
1258	0.0048144
1270	0.0035824
1282	0.0010888
1294	0.000396
1306	0.0002888
1318	0.0002264
1330	0.0001432
1342	0.0001232
1354	4.32e-05
1366	9.04e-05
1378	9.52e-05
1390	0.0001112
1402	0.000228
1414	0.0003744
1426	0.0006288
1438	0.000796
1450	0.0007904
1462	0.0006072
1474	0.0003936
1486	0.0002056
1498	0.0001168
1510	9.44e-05
1522	8.32e-05
1534	7.2e-05
1546	5.36e-05
1558	3.44e-05
1570	2.88e-05
1582	3.04e-05
1594	9.6e-06
1606	3.84e-05
1618	2.56e-05
1630	7.2e-05
1642	8e-05
1654	3.36e-05
1666	5.52e-05
1678	1.68e-05
1690	1.6e-05
1702	5.76e-05
1714	5.04e-05
1726	4.96e-05
1738	6.24e-05
1750	6.8e-05
1762	4.4e-05
1774	4.24e-05
1786	3.28e-05
1798	4.56e-05
1810	4.16e-05
1822	5.84e-05
1834	5.76e-05
1846	9.2e-05
1858	6.88e-05
1870	5.92e-05
1882	3.84e-05
1894	2.96e-05
1906	3.92e-05
1918	5.6e-05
1930	6.16e-05
1942	5.04e-05
1954	7.76e-05
1966	7.36e-05
1978	5.04e-05
1990	6.32e-05
2002	6.64e-05
2014	8.48e-05
2026	6.24e-05
2038	7.68e-05
2050	7.04e-05
2062	0.0001056
2074	0.0001048
2086	0.0001112
2098	0.00012
2110	0.0001304
2122	0.0001528
2134	0.0001336
2146	0.000112
2158	0.0001008
2170	0.000108
2182	9.36e-05
2194	8.24e-05
2206	8.24e-05
2218	6.56e-05
2230	8.96e-05
2242	7.28e-05
2254	0.0001016
2266	0.000112
2278	7.52e-05
2290	0.0001032
2302	5.28e-05
2314	5.76e-05
2326	4.96e-05
2338	4.56e-05
2350	6.16e-05
2362	5.2e-05
2374	4.64e-05
2386	6e-05
2398	5.52e-05
2410	4.32e-05
2422	6.48e-05
2434	4.4e-05
2446	6.48e-05
2458	6.4e-05
2470	4.48e-05
2482	5.84e-05
2494	7.84e-05
2506	8.8e-05
2518	4.08e-05
2530	4.16e-05
2542	5.68e-05
2554	4.4e-05
2566	6.4e-06
2578	4.8e-05
2590	4.88e-05
2602	7.04e-05
2614	2.4e-05
2626	7.84e-05
2638	5.2e-05
2650	4.32e-05
2662	4.96e-05
2674	8.72e-05
2686	5.04e-05
2698	9.92e-05
2710	7.04e-05
2722	9.68e-05
2734	4.8e-05
2746	5.44e-05
2758	5.36e-05
2770	8.72e-05
2782	6.08e-05
2794	4.8e-05
2806	7.6e-05
2818	0.0001744
2830	0.0003136
2842	0.0004912
2854	0.0008144
2866	0.0011736
2878	0.0017376
2890	0.0018
2902	0.0015216
2914	0.0017944
2926	0.0025624
2938	0.0039344
2950	0.005696
2962	0.00672
2974	0.0072712
2986	0.00762
2998	0.0078184
3010	0.0055968
3022	0.0032096
3034	0.0013736
3046	0.0005768
3058	0.0004184
3070	0.0003808
3082	0.0002912
3094	0.0002912
3106	0.0002096
3118	0.0001384
3130	0.00012
3142	0.0001208
3154	6.72e-05
3166	0.0001192
3178	1.36e-05
3190	0.0001
3202	8.48e-05
3214	8.56e-05
3226	6.96e-05
3238	8.64e-05
3250	7.28e-05
3262	8.56e-05
3274	9.12e-05
3286	0.0001184
3298	8.8e-05
3310	5.52e-05
3322	9.52e-05
3334	7.2e-05
3346	0.0001088
3358	9.28e-05
3370	0.0001256
3382	0.000132
3394	8.88e-05
3406	7.12e-05
3418	6.24e-05
3430	9.68e-05
3442	0.0001448
3454	9.68e-05
3466	0.0001072
3478	6.64e-05
3490	9.36e-05
3502	4e-06
3514	5.52e-05
3526	6.16e-05
3538	7.84e-05
3550	6.4e-05
3562	3.76e-05
3574	6.08e-05
3586	0.000108
3598	8.96e-05
3610	2.72e-05
3622	9.44e-05
3634	0.0001232
3646	6.08e-05
3658	0.000132
3670	0.0001568
3682	8.72e-05
3694	9.68e-05
3706	0.0001032
3718	7.04e-05
3730	9.6e-05
3742	0.000136
3754	9.6e-05
3766	6.64e-05
3778	8.72e-05
3790	7.36e-05
3802	0.0001016
3814	0.0001192
3826	8.8e-05
3838	0.0001024
