Infrared Spectrum: Acetaldehyde, tribromo-
Formula: C 2 H Br 3 O
CAS: 115-17-3
State: gas
Origin: Sadtler Research Labs Under US-EPA Contract
1/CM	ABSORBANCE
450	0.0473066
462	0.0365127
474	0.0511044
486	0.0377786
498	0.0410435
510	0.0420429
522	0.0354466
534	0.0668289
546	0.139255
558	0.133058
570	0.0621649
582	0.061965
594	0.0432422
606	0.0543026
618	0.0584336
630	0.0827532
642	0.206017
654	0.102342
666	0.0271846
678	0.0896826
690	0.020655
702	0.0233868
714	0.0306493
726	0.0259853
738	0.0153913
750	0.018323
762	0.0234534
774	0.0556352
786	0.151248
798	0.0607656
810	0.0117267
822	0.00852851
834	0.00439751
846	0.00772896
858	0.0071293
870	0.00199887
882	0.00259853
894	0.00146584
906	0.00393111
918	0.00632976
930	0.00399774
942	0.00493055
954	0.00926143
966	0.0449746
978	0.131726
990	0.153646
1002	0.174235
1014	0.0411101
1026	0.0141253
1038	0.0127261
1050	0.0091948
1062	0.00313156
1074	0.00173235
1086	0.00319819
1098	0.0045974
1110	0.00326482
1122	0.00379785
1134	0.00539695
1146	0.0111937
1158	0.0109272
1170	0.00519706
1182	0.00239864
1194	0.00293168
1206	0.00119932
1218	0.00193224
1230	0.00146584
1242	0.000799548
1254	0.00166573
1266	0.00239864
1278	0.000999435
1290	0.00279842
1302	0.00199887
1314	0.00179898
1326	0.00266516
1338	0.00493055
1350	0.0277177
1362	0.0189226
1374	0.00359797
1386	0.00213213
1398	0.00286505
1410	0.00213213
1422	0.00166573
1434	0.00286505
1446	0.00133258
1458	0.00393111
1470	0.00233202
1482	0.000333145
1494	0.00199887
1506	0.00286505
1518	0.00286505
1530	0.00319819
1542	0.00433089
1554	0.00346471
1566	0.00219876
1578	0.00146584
1590	0.00113269
1602	0.00193224
1614	0.00213213
1626	0.00286505
1638	0.00299831
1650	0.00146584
1662	0.00239864
1674	0.00426426
1686	0.00493055
1698	0.00766234
1710	0.00992772
1722	0.0184562
1734	0.0307826
1746	0.102209
1758	0.528035
1770	0.355666
1782	0.0263851
1794	0.0111937
1806	0.00786222
1818	0.00759571
1830	0.00553021
1842	0.0025319
1854	0.0015991
1866	0.000932806
1878	0.00106606
1890	0.00246527
1902	0.00226539
1914	0.00166573
1926	0.00179898
1938	0.00219876
1950	0.004131
1962	0.00326482
1974	0.00399774
1986	0.00393111
1998	0.00193224
2010	0.00126595
2022	0.00279842
2034	0.00279842
2046	0.00299831
2058	0.00266516
2070	0.00306493
2082	0.00266516
2094	0.00139921
2106	0.000466403
2118	0.00106606
2130	0.00139921
2142	0.000599661
2154	0.000999435
2166	0.00133258
2178	0.000333145
2190	0.000999435
2202	0.000932806
2214	0.000599661
2226	0.00066629
2238	0.000732919
2250	0.000533032
2262	0.00113269
2274	0.00133258
2286	0.00166573
2298	0.0036646
2310	0.00399774
2322	0.00126595
2334	0.000533032
2346	0.00239864
2358	0.000266516
2370	0.00426426
2382	0.00466403
2394	0.00219876
2406	0.00219876
2418	0.0020655
2430	0.00213213
2442	0.00226539
2454	0.00199887
2466	0.00246527
2478	0.00226539
2490	0.00246527
2502	0.00266516
2514	0.00199887
2526	0.0020655
2538	0.00326482
2550	0.00299831
2562	0.00166573
2574	0.00259853
2586	0.00293168
2598	0.00266516
2610	0.00219876
2622	0.00139921
2634	0.0015991
2646	0.00199887
2658	0.00179898
2670	0.004131
2682	0.0111937
2694	0.00686279
2706	0.00473066
2718	0.00399774
2730	0.00406437
2742	0.00453077
2754	0.00599661
2766	0.00599661
2778	0.00699605
2790	0.00699605
2802	0.00672953
2814	0.00799548
2826	0.0131259
2838	0.0576341
2850	0.0837527
2862	0.0165906
2874	0.00992772
2886	0.008262
2898	0.00732919
2910	0.00786222
2922	0.00599661
2934	0.00346471
2946	0.00433089
2958	0.00439751
2970	0.00439751
2982	0.00479729
2994	0.00453077
3006	0.00299831
3018	0.00419763
3030	0.00439751
3042	0.00286505
3054	0.00386448
3066	0.00333145
3078	0.00273179
3090	0.00326482
3102	0.00353134
3114	0.00319819
3126	0.00326482
3138	0.00239864
3150	0.000466403
3162	0.00299831
3174	0.00293168
3186	0.00219876
3198	0.00173235
3210	0.00173235
3222	0.00193224
3234	0.00259853
3246	0.00193224
3258	0.00333145
3270	0.00286505
3282	0.00299831
3294	0.00326482
3306	0.00246527
3318	0.00353134
3330	0.00333145
3342	0.00373122
3354	0.00393111
3366	0.00433089
3378	0.0045974
3390	0.00453077
3402	0.00473066
3414	0.00359797
3426	0.00439751
3438	0.00446414
3450	0.00453077
3462	0.0050638
3474	0.00519706
3486	0.00632976
3498	0.0167239
3510	0.0127261
3522	0.00306493
3534	0.00433089
3546	0.00526369
3558	0.00279842
3570	0.00473066
3582	0.00426426
3594	0.00293168
3606	0.00273179
3618	0.00353134
3630	0.0015991
3642	0.00239864
3654	0.00279842
3666	0.00226539
3678	0.00113269
3690	0.00133258
3702	0.00066629
3714	0.00199887
3726	0.00106606
3738	0.00346471
3750	0.000333145
3762	0.00106606
3774	0.00226539
3786	0.00279842
3798	0.0020655
3810	0.000999435
3822	0.00293168
3834	0.00219876
3846	0.00106606
3858	0.00273179
3870	0.00499718
3882	0.00326482
3894	0.00353134
3906	0.000333145
3918	0.000999435
3930	0.00453077
3942	0.00346471
3954	0.000732919
3966	0.00393111
