Infrared Spectrum: BROMAL
Formula: C2 H Br3 O
CAS: 115-17-3
State: LIQUID
Boiling point: 71-74 C AT 18 mmHg
Class: COBLENTZ
Instrument: Not specified, most likely a prism, grating, or hybrid spectrometer.
Sampling: TRANSMISSION
Path length: 0.003 CM
Resolution: 4
Origin: WYANDOTTE CHEMICALS CORP., WYANDOTTE, MICHIGAN, USA
MICROMETERS	TRANSMITTANCE
2.025	1.003
2.06213	0.996
2.09927	0.993
2.1364	0.99
2.17353	1.001
2.21067	0.996
2.2478	1
2.28493	1
2.32207	0.996
2.3592	0.993
2.39633	0.995
2.43347	0.992
2.4706	0.989
2.50773	0.987
2.54487	0.989
2.582	0.984
2.61913	0.975
2.65627	0.981
2.6934	0.981
2.73053	0.978
2.76767	0.978
2.8048	0.964
2.84193	0.937
2.87907	0.908
2.9162	0.801
2.95333	0.889
2.99047	0.931
3.0276	0.942
3.06473	0.945
3.10186	0.942
3.139	0.945
3.17613	0.945
3.21326	0.942
3.2504	0.936
3.28753	0.934
3.32466	0.933
3.3618	0.93
3.39893	0.925
3.43606	0.914
3.4732	0.911
3.51033	0.835
3.54746	0.678
3.5846	0.902
3.62173	0.928
3.65886	0.925
3.696	0.933
3.73313	0.928
3.77026	0.919
3.8074	0.942
3.84453	0.94
3.88166	0.945
3.9188	0.947
3.95593	0.945
3.99306	0.942
4.0302	0.937
4.06733	0.94
4.10446	0.937
4.1416	0.931
4.17873	0.934
4.21586	0.933
4.253	0.931
4.29013	0.95
4.32726	0.958
4.3644	0.961
4.40153	0.947
4.43866	0.94
4.4758	0.937
4.51293	0.934
4.55006	0.939
4.5872	0.937
4.62433	0.937
4.66146	0.939
4.6986	0.945
4.73573	0.945
4.77286	0.937
4.81	0.937
4.84713	0.939
4.88426	0.937
4.9214	0.936
4.95853	0.931
4.99566	0.93
5.0328	0.916
5.06993	0.892
5.10706	0.874
5.1442	0.885
5.18133	0.905
5.21846	0.894
5.25559	0.911
5.29273	0.919
5.32986	0.913
5.36699	0.917
5.40413	0.917
5.44126	0.911
5.47839	0.9
5.51553	0.891
5.55266	0.888
5.58979	0.886
5.62693	0.821
5.66406	0.757
5.70119	0.526
5.73833	0.027
5.77546	0.085
5.81259	0.649
5.84973	0.69
5.88686	0.785
5.92399	0.868
5.96113	0.88
5.99826	0.886
6.03539	0.902
6.07253	0.899
6.10966	0.903
6.14679	0.897
6.18393	0.899
6.22106	0.903
6.25819	0.909
6.29533	0.914
6.33246	0.908
6.36959	0.913
6.40673	0.895
6.44386	0.9
6.48099	0.903
6.51813	0.913
6.55526	0.911
6.59239	0.911
6.62953	0.914
6.66666	0.913
6.70379	0.916
6.74093	0.911
6.77806	0.913
6.81519	0.914
6.85233	0.913
6.88946	0.911
6.92659	0.909
6.96373	0.903
7.00086	0.903
7.03799	0.9
7.07513	0.899
7.11226	0.881
7.14939	0.871
7.18653	0.864
7.22366	0.857
7.26079	0.847
7.29792	0.812
7.33506	0.695
7.37219	0.42
7.40932	0.527
7.44646	0.773
7.48359	0.843
7.52072	0.869
7.55786	0.878
7.59499	0.881
7.63212	0.88
7.66926	0.885
7.70639	0.885
7.74352	0.885
7.78066	0.888
7.81779	0.874
7.85492	0.871
7.89206	0.863
7.92919	0.86
7.96632	0.863
8.00346	0.869
8.04059	0.877
8.07772	0.878
8.11486	0.883
8.15199	0.883
8.18912	0.881
8.22626	0.877
8.26339	0.875
8.30052	0.872
8.33766	0.869
8.37479	0.871
8.41192	0.877
8.44906	0.886
8.48619	0.885
8.52332	0.888
8.56046	0.888
8.59759	0.886
8.63472	0.883
8.67186	0.878
8.70899	0.874
8.74612	0.868
8.78326	0.866
8.82039	0.852
8.85752	0.838
8.89466	0.818
8.93179	0.812
8.96892	0.801
9.00606	0.787
9.04319	0.774
9.08032	0.756
9.11746	0.751
9.15459	0.76
9.19172	0.779
9.22886	0.799
9.26599	0.818
9.30312	0.816
9.34026	0.81
9.37739	0.809
9.41452	0.791
9.45165	0.779
9.48879	0.785
9.52592	0.776
9.56305	0.771
9.60019	0.774
9.63732	0.762
9.67445	0.754
9.71159	0.736
9.74872	0.706
9.78585	0.667
9.82299	0.574
9.86012	0.405
9.89725	0.225
9.93439	0.1
9.97152	0.041
10.0087	0.034
10.0458	0.046
10.0829	0.079
10.1201	0.108
10.1572	0.105
10.1943	0.062
10.2315	0.051
10.2686	0.189
10.3057	0.42
10.3429	0.534
10.38	0.633
10.4171	0.701
10.4543	0.753
10.4914	0.773
10.5285	0.801
10.5657	0.815
10.6028	0.815
10.6399	0.819
10.6771	0.824
10.7142	0.821
10.7513	0.822
10.7885	0.829
10.8256	0.827
10.8627	0.829
10.8999	0.841
10.937	0.843
10.9741	0.852
11.0113	0.854
11.0484	0.857
11.0855	0.855
11.1227	0.858
11.1598	0.858
11.1969	0.855
11.2341	0.855
11.2712	0.858
11.3083	0.858
11.3455	0.858
11.3826	0.857
11.4197	0.847
11.4569	0.847
11.494	0.841
11.5311	0.847
11.5683	0.843
11.6054	0.852
11.6425	0.86
11.6797	0.86
11.7168	0.861
11.7539	0.864
11.7911	0.866
11.8282	0.868
11.8653	0.868
11.9025	0.869
11.9396	0.869
11.9767	0.871
12.0139	0.868
12.051	0.861
12.0881	0.858
12.1253	0.854
12.1624	0.847
12.1995	0.84
12.2367	0.84
12.2738	0.833
12.3109	0.822
12.3481	0.815
12.3852	0.802
12.4223	0.791
12.4595	0.759
12.4966	0.729
12.5337	0.675
12.5708	0.588
12.608	0.461
12.6451	0.301
12.6822	0.136
12.7194	0.051
12.7565	0.035
12.7936	0.043
12.8308	0.08
12.8679	0.173
12.905	0.326
12.9422	0.428
12.9793	0.498
13.0164	0.534
13.0536	0.545
13.0907	0.56
13.1278	0.566
13.165	0.574
13.2021	0.585
13.2392	0.597
13.2764	0.608
13.3135	0.619
13.3506	0.642
13.3878	0.666
13.4249	0.673
13.462	0.683
13.4992	0.694
13.5363	0.7
13.5734	0.7
13.6106	0.7
13.6477	0.7
13.6848	0.698
13.722	0.694
13.7591	0.684
13.7962	0.683
13.8334	0.684
13.8705	0.69
13.9076	0.69
13.9448	0.695
13.9819	0.695
14.019	0.698
14.0562	0.697
14.0933	0.7
14.1304	0.698
14.1676	0.7
14.2047	0.692
14.2418	0.694
14.279	0.694
14.3161	0.692
14.3532	0.7
14.3904	0.7
14.4275	0.703
14.4646	0.704
14.5018	0.704
14.5389	0.712
14.576	0.717
14.6132	0.722
14.6503	0.72
14.6874	0.718
14.7246	0.703
14.7617	0.697
14.7988	0.683
14.836	0.664
14.8731	0.656
14.9102	0.63
14.9474	0.613
14.9845	0.621
15.0216	0.622
15.0588	0.642
15.0959	0.645
15.133	0.639
15.1702	0.631
15.2073	0.638
15.2444	0.641
15.2816	0.652
15.3187	0.639
15.3558	0.639
15.393	0.625
15.4301	0.594
15.4672	0.579
15.5044	0.559
15.5415	0.523
15.5786	0.504
15.6158	0.492
15.6529	0.482
15.69	0.49
15.7272	0.512
15.7643	0.513
15.8014	0.537
15.8386	0.548
15.8757	0.562
15.9128	0.571
15.95	0.6
15.9871	0.608
