Infrared Spectrum: Diethyl sulfide
Formula: C 4 H 10 S
CAS: 352-93-2
State: gas
Instrument: HP-GC/MS/IRD
Origin: NIST Mass Spectrometry Data Center
1/CM	ABSORBANCE
550	0.00012
562	1.2e-05
574	7.8e-05
586	0.000231
598	0.000192
610	0.000171
622	0.000366
634	0.000417
646	0.000549
658	0.000441
670	0.000597
682	0.000873
694	0.000801
706	0.000576
718	0.000432
730	0.000612
742	0.000936
754	0.001077
766	0.001314
778	0.001404
790	0.001341
802	0.00087
814	0.000615
826	0.000408
838	0.000315
850	0.000288
862	0.000258
874	0.000234
886	0.000291
898	0.000294
910	0.000273
922	0.000486
934	0.00057
946	0.001116
958	0.002172
970	0.003087
982	0.002994
994	0.001686
1006	0.000918
1018	0.000861
1030	0.00093
1042	0.000915
1054	0.001023
1066	0.001059
1078	0.001071
1090	0.000666
1102	0.000399
1114	0.000327
1126	0.00033
1138	0.000291
1150	0.000381
1162	0.000291
1174	0.000429
1186	0.000513
1198	0.000678
1210	0.000963
1222	0.002004
1234	0.00525
1246	0.010851
1258	0.01302
1270	0.010008
1282	0.004602
1294	0.002589
1306	0.001689
1318	0.00123
1330	0.00108
1342	0.001002
1354	0.00126
1366	0.002073
1378	0.00306
1390	0.003351
1402	0.002715
1414	0.002745
1426	0.00357
1438	0.004872
1450	0.005592
1462	0.005073
1474	0.003624
1486	0.002361
1498	0.001461
1510	0.00105
1522	0.000816
1534	0.000657
1546	0.000543
1558	0.000498
1570	0.00048
1582	0.000465
1594	0.000417
1606	0.000387
1618	0.000417
1630	0.000456
1642	0.000444
1654	0.000375
1666	0.000384
1678	0.000375
1690	0.00036
1702	0.000315
1714	0.000249
1726	0.000291
1738	0.000213
1750	0.000201
1762	0.000189
1774	0.000153
1786	0.000156
1798	0.000132
1810	0.000138
1822	0.000135
1834	0.000102
1846	0.000117
1858	0.00012
1870	0.00012
1882	0.000123
1894	0.000111
1906	0.000135
1918	0.000129
1930	0.000123
1942	0.00012
1954	0.000135
1966	0.000132
1978	0.000135
1990	0.000135
2002	0.000159
2014	0.000162
2026	0.00015
2038	0.000123
2050	0.000129
2062	0.000126
2074	0.000126
2086	9.9e-05
2098	9.3e-05
2110	0.000108
2122	0.000132
2134	0.000135
2146	0.000135
2158	0.000147
2170	0.000156
2182	0.000132
2194	0.000141
2206	0.000126
2218	0.000192
2230	0.000201
2242	0.00021
2254	0.000102
2266	0.000132
2278	9e-05
2290	4.5e-05
2302	9.6e-05
2314	0.000108
2326	5.7e-05
2338	0.000135
2350	0.000153
2362	0.000129
2374	0.000114
2386	0.000147
2398	0.000186
2410	0.00021
2422	0.000228
2434	0.000195
2446	0.000132
2458	0.000138
2470	0.000156
2482	0.000111
2494	6.9e-05
2506	7.8e-05
2518	7.5e-05
2530	2.4e-05
2542	3.6e-05
2554	2.4e-05
2566	4.8e-05
2578	3.3e-05
2590	3.6e-05
2602	7.8e-05
2614	7.2e-05
2626	0.000132
2638	0.00012
2650	0.000135
2662	0.000192
2674	0.000297
2686	0.000426
2698	0.000546
2710	0.000534
2722	0.000597
2734	0.000651
2746	0.000678
2758	0.00057
2770	0.00054
2782	0.000708
2794	0.000957
2806	0.001383
2818	0.002031
2830	0.003
2842	0.004323
2854	0.005832
2866	0.008541
2878	0.012282
2890	0.013752
2902	0.014193
2914	0.017277
2926	0.026148
2938	0.029952
2950	0.029823
2962	0.027894
2974	0.02943
2986	0.0246
2998	0.015024
3010	0.007983
3022	0.004434
3034	0.002889
3046	0.002139
3058	0.00156
3070	0.001263
3082	0.001119
3094	0.001017
3106	0.000852
3118	0.000903
3130	0.000831
3142	0.000735
3154	0.000702
3166	0.000705
3178	0.000615
3190	0.000561
3202	0.000537
3214	0.000447
3226	0.000342
3238	0.000303
3250	0.000273
3262	0.000306
3274	0.000231
3286	0.000189
3298	0.000279
3310	0.000249
3322	0.000246
3334	0.000237
3346	0.000174
3358	0.000174
3370	0.000174
3382	0.000117
3394	4.8e-05
3406	8.1e-05
3418	0.000189
3430	0.000138
3442	0.000126
3454	0.00015
3466	9.6e-05
3478	6.3e-05
3490	0.00012
3502	0.000177
3514	9.6e-05
3526	0
3538	0.000105
3550	0.000189
3562	0.000171
3574	0.000165
3586	0.000201
3598	0.000282
3610	0.000183
3622	0.000186
3634	0.00024
3646	0.000141
3658	0.00021
3670	0.00015
3682	0.000252
3694	0.000207
3706	0.000225
3718	0.000312
3730	0.00021
3742	0.000231
3754	0.000234
3766	0.000198
3778	0.000132
3790	0.000177
3802	0.000108
3814	0.000174
3826	0.000213
3838	0.000114
