Infrared Spectrum: Pyruvic acid
Formula: C3 H4 O3
CAS: 127-17-3
State: LIQUID (NEAT)
Boiling point: 165 C DECOMP.
Class: COBLENTZ III
Instrument: DOW NaCl PRISM SPECTROMETER
Sampling: TRANSMISSION
Path length: CAPILLARY
Resolution: 2
Origin: DOW CHEMICAL COMPANY
1/CM	TRANSMITTANCE
4000	0.8432
3991	0.8436
3982	0.844
3973	0.8448
3964	0.8457
3955	0.8465
3946	0.8475
3937	0.8484
3928	0.8491
3919	0.8497
3910	0.8504
3901	0.8511
3892	0.8515
3883	0.8514
3874	0.8514
3865	0.8514
3856	0.851
3847	0.8505
3838	0.8499
3829	0.8484
3820	0.8462
3811	0.8445
3802	0.8428
3793	0.8418
3784	0.8415
3775	0.8412
3766	0.8408
3757	0.8398
3748	0.8384
3739	0.8365
3730	0.8335
3721	0.8302
3712	0.8268
3703	0.8186
3694	0.8072
3685	0.7926
3676	0.7768
3667	0.7582
3658	0.7401
3649	0.7224
3640	0.7041
3631	0.6849
3622	0.6664
3613	0.6495
3604	0.6323
3595	0.6008
3586	0.5651
3577	0.5455
3568	0.5282
3559	0.5183
3550	0.5145
3541	0.5109
3532	0.5066
3523	0.5017
3514	0.4917
3505	0.4832
3496	0.476
3487	0.4689
3478	0.4619
3469	0.4542
3460	0.4439
3451	0.4174
3442	0.4064
3433	0.396
3424	0.385
3415	0.3732
3406	0.359
3397	0.342
3388	0.3275
3379	0.3154
3370	0.305
3361	0.2962
3352	0.2874
3343	0.283
3334	0.2788
3325	0.2748
3316	0.2716
3307	0.2689
3298	0.2661
3289	0.2634
3280	0.2614
3271	0.2593
3262	0.2574
3253	0.2564
3244	0.2556
3235	0.2549
3226	0.2542
3217	0.2539
3208	0.2548
3199	0.2556
3190	0.2565
3181	0.2574
3172	0.2595
3163	0.2617
3154	0.264
3145	0.2663
3136	0.2685
3127	0.2709
3118	0.2733
3109	0.2765
3100	0.2797
3091	0.283
3082	0.2862
3073	0.2894
3064	0.2922
3055	0.295
3046	0.2979
3037	0.3009
3028	0.3039
3019	0.307
3010	0.3102
3001	0.3134
2992	0.3166
2983	0.3199
2974	0.3234
2965	0.3278
2956	0.3322
2947	0.3364
2938	0.3409
2929	0.3455
2920	0.351
2911	0.3568
2902	0.3632
2893	0.3726
2884	0.382
2875	0.3938
2866	0.4078
2857	0.4216
2848	0.4332
2839	0.4448
2830	0.4557
2821	0.4656
2812	0.4732
2803	0.4798
2794	0.4856
2785	0.4915
2776	0.4977
2767	0.504
2758	0.5102
2749	0.5158
2740	0.5212
2731	0.5258
2722	0.5299
2713	0.5327
2704	0.533
2695	0.5301
2686	0.5269
2677	0.5239
2668	0.5217
2659	0.5195
2650	0.5184
2641	0.5176
2632	0.5169
2623	0.5174
2614	0.5189
2605	0.5229
2596	0.5267
2587	0.5306
2578	0.5355
2569	0.5389
2560	0.5405
2551	0.539
2542	0.5374
2533	0.5365
2524	0.5373
2515	0.5388
2506	0.5422
2497	0.5495
2488	0.5581
2479	0.5681
2470	0.5783
2461	0.5892
2452	0.6008
2443	0.6124
2434	0.6224
2425	0.6322
2416	0.6425
2407	0.6551
2398	0.6674
2389	0.676
2380	0.6832
2371	0.6867
2362	0.6895
2353	0.6925
2344	0.6967
2335	0.7056
2326	0.7182
2317	0.7308
2308	0.7396
2299	0.7448
2290	0.7491
2281	0.7517
2272	0.7528
2263	0.754
2254	0.7547
2245	0.7551
2236	0.7562
2227	0.7581
2218	0.7599
2209	0.7624
2200	0.7649
2191	0.7661
2182	0.7658
2173	0.765
2164	0.7639
2155	0.7631
2146	0.7621
2137	0.761
2128	0.7599
2119	0.7588
2110	0.7578
2101	0.7611
2092	0.7642
2083	0.7643
2074	0.7625
2065	0.7594
2056	0.7551
2047	0.7487
2038	0.7418
2029	0.7348
2020	0.7307
2011	0.7267
2002	0.7241
1993	0.7215
1984	0.7199
1975	0.7182
1966	0.7174
1957	0.7168
1948	0.7161
1939	0.7164
1930	0.7167
1921	0.7168
1912	0.7151
1903	0.7115
1894	0.7117
1885	0.7118
1876	0.7089
1867	0.7019
1858	0.6893
1849	0.6736
1840	0.6536
1831	0.623
1822	0.5728
1813	0.4853
1804	0.4462
1795	0.3921
1786	0.3228
1777	0.2204
1768	0.1672
1759	0.139
1750	0.1222
1741	0.1137
1732	0.0972
1723	0.0901
1714	0.1068
1705	0.1486
1696	0.1894
1687	0.2507
1678	0.3013
1669	0.3489
1660	0.3755
1651	0.3949
1642	0.4345
1633	0.4988
1624	0.5153
1615	0.5389
1606	0.5728
1597	0.604
1588	0.6357
1579	0.6471
1570	0.6499
1561	0.6531
1552	0.655
1543	0.6556
1534	0.6555
1525	0.6553
1516	0.6551
1507	0.6544
1498	0.6518
1489	0.6448
1480	0.6305
1471	0.588
1462	0.5593
1453	0.5093
1444	0.4419
1435	0.4108
1426	0.3432
1417	0.3133
1408	0.3122
1399	0.298
1390	0.2675
1381	0.2524
1372	0.264
1363	0.2289
1354	0.1621
1345	0.1482
1336	0.2251
1327	0.3063
1318	0.3405
1309	0.348
1300	0.3497
1291	0.3445
1282	0.3312
1273	0.313
1264	0.2879
1255	0.2656
1246	0.2462
1237	0.2325
1228	0.2179
1219	0.2054
1210	0.1948
1201	0.1936
1192	0.2054
1183	0.2179
1174	0.1903
1165	0.1564
1156	0.1342
1147	0.1294
1138	0.1462
1129	0.2058
1120	0.2973
1111	0.3762
1102	0.4191
1093	0.3862
1084	0.4168
1075	0.5241
1066	0.5765
1057	0.5789
1048	0.5935
1039	0.6147
1030	0.5696
1021	0.4821
1012	0.5471
1003	0.6022
994	0.5877
985	0.4902
976	0.4039
967	0.4812
958	0.5576
949	0.5742
940	0.5585
931	0.5498
922	0.5704
913	0.5805
904	0.5689
895	0.5504
886	0.5455
877	0.5373
868	0.5245
859	0.5068
850	0.4837
841	0.457
832	0.4422
823	0.445
814	0.4426
805	0.4294
796	0.3906
787	0.3516
778	0.3332
769	0.3255
760	0.3474
751	0.3858
742	0.4223
733	0.4331
724	0.4284
715	0.3848
706	0.32
697	0.2904
688	0.2869
679	0.2928
670	0.2825
661	0.2761
652	0.2627
643	0.2352
634	0.2033
