Infrared Spectrum: PYRUVIC ACID
Formula: C3 H4 O3
CAS: 127-17-3
State: LIQUID
Class: COBLENTZ
Instrument: Not specified, most likely a grating spectrometer.
Sampling: TRANSMISSION
Path length: (CsI PLATES)
Resolution: 4
Origin: STANDARD OIL OF OHIO
1/CM	TRANSMITTANCE
312.711	0.113
322.16	0.144
331.609	0.183
341.057	0.223
350.506	0.2789
359.955	0.311
369.404	0.338
378.853	0.337
388.301	0.335
397.75	0.372
407.199	0.428
416.648	0.45
426.097	0.474
435.546	0.513
444.994	0.554
454.443	0.598
463.892	0.63
473.341	0.655
482.79	0.671
492.238	0.676
501.687	0.683
511.136	0.686
520.585	0.671
530.034	0.647
539.482	0.6131
548.931	0.567
558.38	0.552
567.829	0.569
577.278	0.566
586.726	0.542
596.175	0.479
605.624	0.3032
615.073	0.205
624.522	0.264
633.971	0.4079
643.419	0.45
652.868	0.45
662.317	0.44
671.766	0.416
681.215	0.369
690.663	0.315
700.112	0.327
709.561	0.374
719.01	0.428
728.459	0.438
737.907	0.416
747.356	0.374
756.805	0.3081
766.254	0.267
775.703	0.272
785.151	0.264
794.6	0.306
804.049	0.352
813.498	0.366
822.947	0.364
832.396	0.362
841.844	0.389
851.293	0.42
860.742	0.454
870.191	0.483
879.64	0.501
889.088	0.508
898.537	0.508
907.986	0.535
917.435	0.537
926.884	0.52
936.332	0.505
945.781	0.528
955.23	0.525
964.679	0.462
974.128	0.327
983.576	0.3719
993.025	0.508
1002.47	0.571
1011.92	0.547
1021.37	0.415
1030.82	0.516
1040.27	0.569
1049.72	0.555
1059.17	0.542
1068.62	0.513
1078.06	0.4031
1087.51	0.2721
1096.96	0.264
1106.41	0.306
1115.86	0.228
1125.31	0.147
1134.76	0.084
1144.21	0.072
1153.66	0.061
1163.1	0.071
1172.55	0.103
1182	0.137
1191.45	0.111
1200.9	0.103
1210.35	0.108
1219.8	0.116
1229.25	0.127
1238.69	0.15
1248.14	0.169
1257.59	0.201
1267.04	0.225
1276.49	0.245
1285.94	0.254
1295.39	0.262
1304.84	0.264
1314.28	0.259
1323.73	0.238
1333.18	0.1771
1342.63	0.081
1352.08	0.066
1361.53	0.0999
1370.98	0.172
1380.43	0.155
1389.88	0.166
1399.32	0.211
1408.77	0.233
1418.22	0.22
1427.67	0.233
1437.12	0.322
1446.57	0.377
1456.02	0.4568
1465.47	0.5249
1474.91	0.581
1484.36	0.608
1493.81	0.622
1503.26	0.63
1512.71	0.628
1522.16	0.628
1531.61	0.625
1541.06	0.622
1550.5	0.616
1559.95	0.601
1569.4	0.596
1578.85	0.581
1588.3	0.559
1597.75	0.522
1607.2	0.4621
1616.65	0.418
1626.1	0.374
1635.54	0.374
1644.99	0.35
1654.44	0.228
1663.89	0.233
1673.34	0.2541
1682.79	0.188
1692.24	0.14
1701.69	0.0861
1711.13	0.049
1720.58	0.022
1730.03	0.013
1739.48	0.013
1748.93	0.023
1758.38	0.027
1767.83	0.038
1777.28	0.044
1786.73	0.088
1796.17	0.2059
1805.62	0.3329
1815.07	0.408
1824.52	0.493
1833.97	0.5809
1843.42	0.608
1852.87	0.65
1862.32	0.677
1871.76	0.688
1881.21	0.691
1890.66	0.691
1900.11	0.689
1909.56	0.691
1919.01	0.691
1928.46	0.688
1937.91	0.688
1947.35	0.686
1956.8	0.677
1966.25	0.677
1975.7	0.676
1985.15	0.672
1994.6	0.671
2004.05	0.67
2013.5	0.677
2022.95	0.6835
2032.39	0.691
2041.84	0.7019
2051.29	0.7099
2060.74	0.7169
2070.19	0.7269
2079.64	0.7325
2089.09	0.7418
2098.54	0.7495
2107.98	0.7539
2117.43	0.7559
2126.88	0.757
2136.33	0.757
2145.78	0.757
2155.23	0.759
2164.68	0.759
2174.13	0.759
2183.58	0.759
2193.02	0.757
2202.47	0.7541
2211.92	0.752
2221.37	0.75
2230.82	0.7446
2240.27	0.7422
2249.72	0.7362
2259.17	0.7321
2268.61	0.7242
2278.06	0.7134
2287.51	0.7069
2296.96	0.7001
2306.41	0.6899
2315.86	0.6701
2325.31	0.6585
2334.76	0.6414
2344.2	0.6243
2353.65	0.6107
2363.1	0.5979
2372.55	0.5818
2382	0.5717
2391.45	0.5618
2400.9	0.5527
2410.35	0.5387
2419.8	0.5208
2429.24	0.506
2438.69	0.4851
2448.14	0.4712
2457.59	0.4592
2467.04	0.45
2476.49	0.4377
2485.94	0.4146
2495.39	0.4256
2504.83	0.4091
2514.28	0.4044
2523.73	0.4
2533.18	0.394
2542.63	0.3975
2552.08	0.4
2561.53	0.398
2570.98	0.3932
2580.43	0.3882
2589.87	0.3785
2599.32	0.3745
2608.77	0.3685
2618.22	0.3625
2627.67	0.3565
2637.12	0.3547
2646.57	0.3594
2656.02	0.361
2665.46	0.362
2674.91	0.3634
2684.36	0.366
2693.81	0.364
2703.26	0.361
2712.71	0.3556
2722.16	0.352
2731.61	0.3456
2741.05	0.3363
2750.5	0.3243
2759.95	0.3093
2769.4	0.2956
2778.85	0.2823
2788.3	0.2707
2797.75	0.2584
2807.2	0.249
2816.65	0.233
2826.09	0.2281
2835.54	0.2176
2844.99	0.2091
2854.44	0.2009
2863.89	0.1947
2873.34	0.1886
2882.79	0.1805
2892.24	0.1737
2901.68	0.1698
2911.13	0.1586
2920.58	0.1494
2930.03	0.142
2939.48	0.1446
2948.93	0.142
2958.38	0.142
2967.83	0.14
2977.28	0.1358
2986.72	0.133
2996.17	0.133
3005.62	0.13
3015.07	0.13
3024.52	0.128
3033.97	0.128
3043.42	0.1279
3052.87	0.127
3062.31	0.127
3071.76	0.1259
3081.21	0.125
3090.66	0.125
3100.11	0.125
3109.56	0.127
3119.01	0.127
3128.46	0.127
3137.9	0.127
3147.35	0.1275
3156.8	0.128
3166.25	0.126
3175.7	0.127
3185.15	0.127
3194.6	0.127
3204.05	0.129
3213.5	0.13
3222.94	0.132
3232.39	0.132
3241.84	0.137
3251.29	0.137
3260.74	0.138
3270.19	0.14
3279.64	0.1454
3289.09	0.15
3298.53	0.1509
3307.98	0.1539
3317.43	0.1544
3326.88	0.1609
3336.33	0.166
3345.78	0.1707
3355.23	0.1729
3364.68	0.1808
3374.13	0.1868
3383.57	0.1958
3393.02	0.2026
3402.47	0.2157
3411.92	0.2258
3421.37	0.2395
3430.82	0.2494
3440.27	0.2568
3449.72	0.2641
3459.16	0.2765
3468.61	0.2899
3478.06	0.3009
3487.51	0.3079
3496.96	0.3177
3506.41	0.3274
3515.86	0.3365
3525.31	0.3438
3534.75	0.3498
3544.2	0.3634
3553.65	0.3718
3563.1	0.384
3572.55	0.3969
3582	0.4097
3591.45	0.4216
3600.9	0.44
3610.35	0.4676
3619.79	0.4912
3629.24	0.5238
3638.69	0.5677
3648.14	0.6393
3657.59	0.6917
3667.04	0.7611
3676.49	0.8083
3685.94	0.8399
3695.38	0.8545
3704.83	0.8714
3714.28	0.8776
3723.73	0.8838
3733.18	0.8883
3742.63	0.889
3752.08	0.8933
3761.53	0.896
3770.98	0.8985
3780.42	0.9
3789.87	0.9
3799.32	0.9
3808.77	0.9
3818.22	0.9
3827.67	0.9
3837.12	0.9
3846.57	0.9
3856.01	0.901
3865.46	0.901
3874.91	0.901
3884.36	0.9
