Infrared Spectrum: Isopropylacetylene
Formula: C 5 H 8
CAS: 598-23-2
State: gas
Instrument: HP-GC/MS/IRD
Origin: NIST Mass Spectrometry Data Center
1/CM	ABSORBANCE
550	0.0040683
562	0.0035358
574	0.0030885
586	0.0043452
598	0.0091164
610	0.0302247
622	0.0975327
634	0.213
646	0.112038
658	0.0323547
670	0.0074763
682	0.0023856
694	0.0014484
706	0.0012354
718	0.0009798
730	0.0005538
742	0.0005964
754	0.0003834
766	0.0003621
778	0.0003195
790	0.0003408
802	0.0004047
814	0.0005538
826	0.0005325
838	0.0003621
850	0.0003621
862	0.0003621
874	0.0003195
886	0.0004473
898	0.0008307
910	0.0015336
922	0.0016401
934	0.0016827
946	0.0009159
958	0.0004047
970	0.0001704
982	0.0001491
994	2.13e-05
1006	0.0002343
1018	0.0003408
1030	0.0007242
1042	0.0012993
1054	0.0016401
1066	0.0023643
1078	0.0040257
1090	0.0085626
1102	0.0132699
1114	0.0112677
1126	0.005751
1138	0.0037062
1150	0.0054741
1162	0.0061344
1174	0.0053676
1186	0.0038127
1198	0.0022365
1210	0.002556
1222	0.0064965
1234	0.0286272
1246	0.0387873
1258	0.0379566
1270	0.0289041
1282	0.0088608
1294	0.0092016
1306	0.0228762
1318	0.0239625
1330	0.016614
1342	0.0098832
1354	0.0079875
1366	0.0090312
1378	0.012354
1390	0.0121197
1402	0.0067521
1414	0.0055167
1426	0.0074337
1438	0.0116937
1450	0.0147609
1462	0.0168909
1474	0.0165075
1486	0.0114594
1498	0.0073911
1510	0.0036849
1522	0.0017892
1534	0.0010863
1546	0.0007455
1558	0.0005751
1570	0.0005112
1582	0.0005325
1594	0.0004899
1606	0.0005325
1618	0.0005751
1630	0.0006816
1642	0.0007881
1654	0.0008733
1666	0.0007668
1678	0.0006816
1690	0.0005538
1702	0.0004473
1714	0.0003408
1726	0.0002556
1738	0.0002556
1750	0.0001491
1762	0.0001491
1774	0.0001491
1786	0.0001065
1798	0.0001917
1810	0.0002343
1822	0.0002343
1834	0.0002769
1846	0.0002556
1858	0.0003195
1870	0.000426
1882	0.000426
1894	0.0004686
1906	0.0004047
1918	0.0003195
1930	0.0002343
1942	0.0001278
1954	6.39e-05
1966	6.39e-05
1978	6.39e-05
1990	8.52e-05
2002	4.26e-05
2014	6.39e-05
2026	0.0001065
2038	0.0001278
2050	0.0002556
2062	0.0005538
2074	0.0011076
2086	0.0024282
2098	0.0048777
2110	0.0069438
2122	0.0070077
2134	0.0048351
2146	0.0012993
2158	0.0002556
2170	0.0001065
2182	0
2194	2.13e-05
2206	8.52e-05
2218	0.0001278
2230	0.0001917
2242	0.0002343
2254	0.0001491
2266	0.0002343
2278	0.0002982
2290	0.0004686
2302	0.0004899
2314	0.0003408
2326	0.0001491
2338	8.52e-05
2350	6.39e-05
2362	0.0001704
2374	0.0001491
2386	0.0001917
2398	0.0001491
2410	0.0001917
2422	0.0002343
2434	0.0002982
2446	0.0002982
2458	0.0003408
2470	0.0004047
2482	0.0005325
2494	0.0005112
2506	0.0003621
2518	0.000213
2530	0.0003408
2542	0.0005964
2554	0.0008946
2566	0.0011715
2578	0.0011928
2590	0.0010224
2602	0.0008946
2614	0.0008946
2626	0.000852
2638	0.0008094
2650	0.0007455
2662	0.0007668
2674	0.0007668
2686	0.0011928
2698	0.0015975
2710	0.0012567
2722	0.0014697
2734	0.0018105
2746	0.0021513
2758	0.00213
2770	0.0022578
2782	0.0026625
2794	0.002769
2806	0.0030672
2818	0.0034719
2830	0.0038979
2842	0.005325
2854	0.0096915
2866	0.0207888
2878	0.0313749
2890	0.0387447
2902	0.0499698
2914	0.0460506
2926	0.052824
2938	0.0586389
2950	0.0682665
2962	0.0971493
2974	0.131783
2986	0.122006
2998	0.0854769
3010	0.0338883
3022	0.0112038
3034	0.0048351
3046	0.003195
3058	0.0027477
3070	0.0024921
3082	0.0025347
3094	0.0025773
3106	0.0027903
3118	0.0027477
3130	0.0028755
3142	0.0028542
3154	0.0030033
3166	0.0033654
3178	0.0035358
3190	0.0031524
3202	0.0025986
3214	0.0019809
3226	0.0016827
3238	0.0018105
3250	0.0025347
3262	0.0037701
3274	0.0071781
3286	0.014697
3298	0.0265824
3310	0.0527814
3322	0.0604281
3334	0.0511413
3346	0.0400653
3358	0.010011
3370	0.004047
3382	0.0017892
3394	0.0007455
3406	0.0005538
3418	0.0005538
3430	0.0004473
3442	0.0002769
3454	0.000426
3466	0.0004473
3478	0.0004686
3490	0.0008307
3502	0.0010437
3514	0.0007881
3526	0.0005964
3538	0.0003834
3550	0.0002769
3562	0.0002982
3574	0.0001278
3586	0.0001491
3598	0.0001704
3610	0.0001065
3622	0.0001491
3634	0.0001491
3646	0.0001704
3658	0.0001278
3670	0.0002769
3682	0.0001917
3694	0.0001278
3706	0.0002343
3718	0.0001917
3730	0.0002343
3742	0.0002556
3754	0.0002343
3766	0.0002769
3778	0.0003621
3790	0.0002343
3802	0.0005325
3814	0.0005325
3826	0.000639
3838	0.0006177
