Infrared Spectrum: Cyclobutylamine
Formula: C 4 H 9 N
CAS: 2516-34-9
State: gas
Origin: EPA-IR VAPOR PHASE LIBRARY
1/CM	ABSORBANCE
549.8	0.0127
559.445	0.01289
569.09	0.01325
578.734	0.01446
588.379	0.01602
598.024	0.01821
607.669	0.01994
617.313	0.0223
626.958	0.02272
636.603	0.0233
646.248	0.02441
655.893	0.02752
665.537	0.03121
675.182	0.03693
684.827	0.04556
694.472	0.05625
704.116	0.07006
713.761	0.086
723.406	0.09631
733.051	0.10143
742.695	0.10207
752.34	0.09105
761.985	0.07926
771.63	0.07271
781.275	0.06223
790.919	0.05439
800.564	0.04646
810.209	0.03696
819.854	0.03056
829.498	0.02522
839.143	0.02099
848.788	0.01823
858.433	0.01641
868.078	0.0156
877.722	0.0153
887.367	0.01621
897.012	0.01934
906.657	0.02213
916.301	0.02383
925.946	0.02419
935.591	0.02375
945.236	0.01927
954.88	0.01478
964.525	0.01288
974.17	0.01109
983.815	0.01184
993.46	0.0119
1003.1	0.01298
1012.75	0.01298
1022.39	0.01366
1032.04	0.01557
1041.68	0.01681
1051.33	0.01808
1060.97	0.01884
1070.62	0.02016
1080.26	0.02062
1089.91	0.02466
1099.55	0.03062
1109.2	0.04352
1118.84	0.04941
1128.49	0.0506
1138.13	0.04293
1147.78	0.03236
1157.42	0.02059
1167.07	0.016
1176.71	0.01521
1186.36	0.01482
1196	0.01238
1205.64	0.01364
1215.29	0.0137
1224.93	0.0186
1234.58	0.02055
1244.22	0.02398
1253.87	0.02588
1263.51	0.02382
1273.16	0.0203
1282.8	0.01601
1292.45	0.01229
1302.09	0.01003
1311.74	0.00991
1321.38	0.01183
1331.03	0.0163
1340.67	0.02202
1350.32	0.02728
1359.96	0.03447
1369.61	0.04047
1379.25	0.03859
1388.9	0.03454
1398.54	0.02844
1408.18	0.01982
1417.83	0.01535
1427.47	0.01566
1437.12	0.01675
1446.76	0.0217
1456.41	0.01978
1466.05	0.01908
1475.7	0.01575
1485.34	0.01257
1494.99	0.00885
1504.63	0.00727
1514.28	0.0067
1523.92	0.0068
1533.57	0.00676
1543.21	0.00734
1552.86	0.00842
1562.5	0.01036
1572.15	0.01297
1581.79	0.01802
1591.44	0.02536
1601.08	0.03342
1610.73	0.03874
1620.37	0.0386
1630.01	0.0324
1639.66	0.02407
1649.3	0.01539
1658.95	0.00983
1668.59	0.00682
1678.24	0.00517
1687.88	0.00444
1697.53	0.00412
1707.17	0.00369
1716.82	0.00376
1726.46	0.00379
1736.11	0.00379
1745.75	0.00342
1755.4	0.00337
1765.04	0.00306
1774.69	0.00288
1784.33	0.00288
1793.98	0.0029
1803.62	0.00307
1813.27	0.00347
1822.91	0.00348
1832.55	0.00372
1842.2	0.00415
1851.84	0.00412
1861.49	0.004
1871.13	0.00358
1880.78	0.00305
1890.42	0.00279
1900.07	0.0026
1909.71	0.00216
1919.36	0.00212
1929	0.00197
1938.65	0.0017
1948.29	0.00144
1957.94	0.00175
1967.58	0.00157
1977.23	0.00169
1986.87	0.00182
1996.52	0.00163
2006.16	0.00176
2015.81	0.00152
2025.45	0.00186
2035.1	0.00181
2044.74	0.00208
2054.38	0.00211
2064.03	0.00225
2073.67	0.00235
2083.32	0.00206
2092.96	0.00205
2102.61	0.00231
2112.25	0.00252
2121.9	0.00295
2131.54	0.00338
2141.19	0.00319
2150.83	0.00316
2160.48	0.00304
2170.12	0.00273
2179.77	0.00262
2189.41	0.00264
2199.06	0.00247
2208.7	0.00237
2218.35	0.00203
2227.99	0.00179
2237.64	0.00165
2247.28	0.00156
2256.92	0.00142
2266.57	0.00136
2276.21	0.0012
2285.86	0.0008115
2295.5	0.00105
2305.15	0.000821
2314.79	0.00112
2324.44	0.00102
2334.08	0.00108
2343.73	0.00116
2353.37	0.00146
2363.02	0.00134
2372.66	0.00108
2382.31	0.00127
2391.95	0.00113
2401.6	0.00111
2411.24	0.00104
2420.89	0.00123
2430.53	0.0009167
2440.18	0.00119
2449.82	0.00106
2459.47	0.00101
2469.11	0.00131
2478.75	0.00116
2488.4	0.00121
2498.04	0.00117
2507.69	0.00133
2517.33	0.00132
2526.98	0.00123
2536.62	0.00114
2546.27	0.00125
2555.91	0.00125
2565.56	0.00145
2575.2	0.0018
2584.85	0.00171
2594.49	0.00214
2604.14	0.00205
2613.78	0.00219
2623.43	0.00226
2633.07	0.00238
2642.72	0.00228
2652.36	0.00255
2662.01	0.00273
2671.65	0.00285
2681.29	0.00344
2690.94	0.00348
2700.58	0.00344
2710.23	0.00349
2719.87	0.00368
2729.52	0.00405
2739.16	0.00399
2748.81	0.00412
2758.45	0.00425
2768.1	0.00444
2777.74	0.00448
2787.39	0.00501
2797.03	0.00601
2806.68	0.00805
2816.32	0.01161
2825.97	0.01782
2835.61	0.02812
2845.26	0.04352
2854.9	0.06301
2864.55	0.07882
2874.19	0.09265
2883.84	0.10108
2893.48	0.10075
2903.12	0.10716
2912.77	0.12134
2922.41	0.14851
2932.06	0.18039
2941.7	0.21913
2951.35	0.27361
2960.99	0.30285
2970.64	0.2919
2980.28	0.29921
2989.93	0.20966
2999.57	0.13762
3009.22	0.08877
3018.86	0.04549
3028.51	0.0197
3038.15	0.01051
3047.8	0.00814
3057.44	0.00729
3067.09	0.00661
3076.73	0.00563
3086.38	0.00458
3096.02	0.00369
3105.67	0.0033
3115.31	0.00283
3124.95	0.00292
3134.6	0.00268
3144.24	0.00264
3153.89	0.00216
3163.53	0.0022
3173.18	0.00182
3182.82	0.00133
3192.47	0.00129
3202.11	0.0013
3211.76	0.00156
3221.4	0.00143
3231.05	0.00112
3240.69	0.00142
3250.34	0.00138
3259.98	0.0008083
3269.63	0.00101
3279.27	0.00125
3288.92	0.00141
3298.56	0.00116
3308.21	0.0019
3317.85	0.00238
3327.49	0.00277
3337.14	0.00322
3346.78	0.003
3356.43	0.00272
3366.07	0.0027
3375.72	0.00214
3385.36	0.00221
3395.01	0.00229
3404.65	0.00203
3414.3	0.00209
3423.94	0.00161
3433.59	0.00158
3443.23	0.00108
3452.88	0.00108
3462.52	0.000846
3472.17	0.00102
3481.81	0.0007552
3491.46	0.00114
3501.1	0.0006801
3510.75	0.00102
3520.39	0.0006798
3530.04	0.00121
3539.68	0.00115
3549.32	0.00104
3558.97	0.00107
3568.61	0.00111
3578.26	0.00121
3587.9	0.00124
3597.55	0.00128
3607.19	0.00113
3616.84	0.0009788
3626.48	0.00118
3636.13	0.0009958
3645.77	0.00128
3655.42	0.00116
3665.06	0.00116
3674.71	0.00134
3684.35	0.00139
3694	0.00167
3703.64	0.00134
3713.29	0.00204
3722.93	0.00123
3732.58	0.00133
3742.22	0.00146
3751.86	0.00132
3761.51	0.0009916
3771.15	0.00147
3780.8	0.0014
3790.44	0.00107
3800.09	0.00124
3809.73	0.00115
3819.38	0.00127
3829.02	0.00196
3838.67	0.00138
3848.31	0.00136
3857.96	0.00176
3867.6	0.002
3877.25	0.00153
3886.89	0.00164
3896.54	0.00113
3906.18	0.00143
3915.83	0.00147
3925.47	0.00207
3935.12	0.00141
3944.76	0.00196
3954.41	0.00131
3964.05	0.00172
3973.69	0.00112
3983.34	0.00162
3992.98	0.00132
