Infrared Spectrum: ETHYL METHYL SULFIDE
Formula: C3 H8 S
CAS: 624-89-5
State: LIQUID
Boiling point: 65-67 C
Class: COBLENTZ
Instrument: Not specified, most likely a prism, grating, or hybrid spectrometer.
Sampling: TRANSMISSION
Path length: 0.005 CM
Resolution: 4
Origin: WYANDOTTE CHEMICALS CORP., WYANDOTTE, MICHIGAN, USA
MICROMETERS	TRANSMITTANCE
2.012	0.961
2.04915	0.964
2.0863	0.968
2.12346	0.959
2.16061	0.933
2.19776	0.79
2.23491	0.775
2.27207	0.796
2.30922	0.848
2.34637	0.896
2.38352	0.913
2.42067	0.908
2.45783	0.906
2.49498	0.899
2.53213	0.914
2.56928	0.933
2.60644	0.945
2.64359	0.948
2.68074	0.948
2.71789	0.942
2.75504	0.933
2.7922	0.92
2.82935	0.914
2.8665	0.911
2.90365	0.919
2.94081	0.934
2.97796	0.937
3.01511	0.928
3.05226	0.913
3.08941	0.899
3.12657	0.846
3.16372	0.81
3.20087	0.8
3.23802	0.761
3.27518	0.671
3.31233	0.389
3.34948	0.024
3.38663	0.035
3.42378	0.034
3.46094	0.052
3.49809	0.063
3.53524	0.162
3.57239	0.598
3.60955	0.792
3.6467	0.813
3.68385	0.79
3.721	0.823
3.75815	0.882
3.79531	0.906
3.83246	0.913
3.86961	0.924
3.90676	0.93
3.94392	0.93
3.98107	0.927
4.01822	0.908
4.05537	0.903
4.09252	0.902
4.12968	0.905
4.16683	0.891
4.20398	0.86
4.24113	0.869
4.27828	0.868
4.31544	0.888
4.35259	0.899
4.38974	0.927
4.42689	0.928
4.46405	0.888
4.5012	0.905
4.53835	0.91
4.5755	0.91
4.61265	0.93
4.64981	0.928
4.68696	0.911
4.72411	0.941
4.76126	0.947
4.79842	0.964
4.83557	0.967
4.87272	0.962
4.90987	0.967
4.94702	0.953
4.98418	0.951
5.02133	0.961
5.05848	0.956
5.09563	0.967
5.13279	0.967
5.16994	0.968
5.20709	0.968
5.24424	0.968
5.28139	0.968
5.31855	0.968
5.3557	0.979
5.39285	0.99
5.43	0.987
5.46716	0.989
5.50431	0.981
5.54146	0.967
5.57861	0.962
5.61576	0.962
5.65292	0.961
5.69007	0.964
5.72722	0.961
5.76437	0.951
5.80153	0.931
5.83868	0.927
5.87583	0.925
5.91298	0.916
5.95013	0.91
5.98729	0.902
6.02444	0.9
6.06159	0.896
6.09874	0.868
6.1359	0.844
6.17305	0.824
6.2102	0.829
6.24735	0.824
6.2845	0.824
6.32166	0.82
6.35881	0.813
6.39596	0.812
6.43311	0.801
6.47027	0.782
6.50742	0.768
6.54457	0.75
6.58172	0.728
6.61887	0.694
6.65603	0.635
6.69318	0.55
6.73033	0.458
6.76748	0.311
6.80464	0.114
6.84179	0.04
6.87894	0.034
6.91609	0.031
6.95324	0.032
6.9904	0.035
7.02755	0.114
7.0647	0.269
7.10185	0.37
7.13901	0.44
7.17616	0.46
7.21331	0.365
7.25046	0.151
7.28761	0.306
7.32477	0.567
7.36192	0.651
7.39907	0.688
7.43622	0.697
7.47338	0.688
7.51053	0.646
7.54768	0.525
7.58483	0.502
7.62198	0.528
7.65914	0.511
7.69629	0.572
7.73344	0.582
7.77059	0.519
7.80775	0.359
7.8449	0.162
7.88205	0.031
7.9192	0.029
7.95635	0.105
7.99351	0.234
8.03066	0.384
8.06781	0.559
8.10496	0.658
8.14212	0.722
8.17927	0.77
8.21642	0.804
8.25357	0.821
8.29072	0.84
8.32788	0.858
8.36503	0.871
8.40218	0.875
8.43933	0.883
8.47648	0.888
8.51364	0.897
8.55079	0.899
8.58794	0.899
8.62509	0.899
8.66225	0.899
8.6994	0.899
8.73655	0.9
8.7737	0.899
8.81085	0.897
8.84801	0.871
8.88516	0.848
8.92231	0.818
8.95946	0.823
8.99662	0.837
9.03377	0.84
9.07092	0.835
9.10807	0.82
9.14522	0.809
9.18238	0.786
9.21953	0.75
9.25668	0.696
9.29383	0.623
9.33099	0.497
9.36814	0.308
9.40529	0.195
9.44244	0.275
9.47959	0.454
9.51675	0.572
9.5539	0.631
9.59105	0.668
9.6282	0.691
9.66536	0.697
9.70251	0.693
9.73966	0.7
9.77681	0.722
9.81396	0.728
9.85112	0.727
9.88827	0.708
9.92542	0.699
9.96257	0.7
9.99973	0.693
10.0369	0.66
10.074	0.615
10.1112	0.536
10.1483	0.423
10.1855	0.328
10.2226	0.258
10.2598	0.2
10.2969	0.151
10.3341	0.139
10.3712	0.164
10.4084	0.175
10.4456	0.142
10.4827	0.096
10.5199	0.1
10.557	0.124
10.5942	0.173
10.6313	0.255
10.6685	0.396
10.7056	0.531
10.7428	0.621
10.7799	0.685
10.8171	0.736
10.8542	0.768
10.8914	0.79
10.9285	0.809
10.9657	0.823
11.0028	0.827
11.04	0.84
11.0771	0.852
11.1143	0.868
11.1514	0.871
11.1886	0.877
11.2257	0.883
11.2629	0.885
11.3001	0.888
11.3372	0.886
11.3744	0.886
11.4115	0.889
11.4487	0.894
11.4858	0.908
11.523	0.91
11.5601	0.908
11.5973	0.91
11.6344	0.91
11.6716	0.911
11.7087	0.911
11.7459	0.916
11.783	0.914
11.8202	0.914
11.8573	0.914
11.8945	0.914
11.9316	0.917
11.9688	0.914
12.0059	0.917
12.0431	0.917
12.0802	0.914
12.1174	0.911
12.1546	0.908
12.1917	0.903
12.2289	0.906
12.266	0.905
12.3032	0.899
12.3403	0.897
12.3775	0.883
12.4146	0.874
12.4518	0.863
12.4889	0.846
12.5261	0.823
12.5632	0.798
12.6004	0.762
12.6375	0.716
12.6747	0.675
12.7118	0.618
12.749	0.561
12.7861	0.536
12.8233	0.567
12.8604	0.612
12.8976	0.651
12.9348	0.671
12.9719	0.682
13.0091	0.671
13.0462	0.64
13.0834	0.581
13.1205	0.52
13.1577	0.454
13.1948	0.41
13.232	0.427
13.2691	0.508
13.3063	0.598
13.3434	0.668
13.3806	0.717
13.4177	0.75
13.4549	0.773
13.492	0.792
13.5292	0.801
13.5663	0.803
13.6035	0.803
13.6406	0.79
13.6778	0.759
13.7149	0.717
13.7521	0.648
13.7893	0.589
13.8264	0.568
13.8636	0.604
13.9007	0.662
13.9379	0.719
13.975	0.761
14.0122	0.792
14.0493	0.81
14.0865	0.826
14.1236	0.837
14.1608	0.843
14.1979	0.848
14.2351	0.855
14.2722	0.855
14.3094	0.855
14.3465	0.855
14.3837	0.848
14.4208	0.846
14.458	0.831
14.4951	0.826
14.5323	0.82
14.5694	0.818
14.6066	0.817
14.6438	0.815
14.6809	0.812
14.7181	0.807
14.7552	0.792
14.7924	0.776
14.8295	0.753
14.8667	0.748
14.9038	0.758
14.941	0.762
14.9781	0.762
15.0153	0.762
15.0524	0.756
15.0896	0.75
15.1267	0.751
15.1639	0.737
15.201	0.722
15.2382	0.7
15.2753	0.648
15.3125	0.598
15.3496	0.55
15.3868	0.534
15.4239	0.544
15.4611	0.572
15.4983	0.62
15.5354	0.655
15.5726	0.689
15.6097	0.711
15.6469	0.731
15.684	0.737
15.7212	0.745
15.7583	0.747
15.7955	0.751
15.8326	0.753
15.8698	0.748
15.9069	0.742
15.9441	0.745
15.9812	0.747
