Infrared Spectrum: 3-PYRROLINE
Formula: C4 H7 N
CAS: 109-96-6
State: LIQUID (NEAT)
Class: COBLENTZ III
Instrument: CARY 90 (GRATING)
Instrument parameters: GRATING CHANGES AT 3000, 2000, 1200 CM^-^1
Sampling: TRANSMISSION
Path length: CAPILLARY
Resolution: 4
Origin: WESTERN REGIONAL RES. USDA
1/CM	TRANSMITTANCE
454.943	0.832
464	0.842
473.056	0.844
482.113	0.832
491.169	0.831
500.226	0.834
509.283	0.836
518.339	0.827
527.396	0.817
536.453	0.805
545.509	0.795
554.566	0.783
563.622	0.771
572.679	0.754
581.736	0.738
590.792	0.716
599.849	0.698
608.906	0.681
617.962	0.656
627.019	0.638
636.075	0.61
645.132	0.565
654.189	0.492
663.245	0.392
672.302	0.398
681.358	0.497
690.415	0.579
699.472	0.63
708.528	0.645
717.585	0.648
726.642	0.662
735.698	0.71
744.755	0.727
753.811	0.729
762.868	0.725
771.925	0.711
780.981	0.695
790.038	0.663
799.094	0.654
808.151	0.635
817.208	0.616
826.264	0.607
835.321	0.603
844.378	0.6
853.434	0.602
862.491	0.608
871.547	0.62
880.604	0.652
889.661	0.701
898.717	0.751
907.774	0.698
916.831	0.775
925.887	0.817
934.944	0.823
944	0.821
953.057	0.816
962.114	0.771
971.17	0.755
980.227	0.801
989.283	0.835
998.34	0.835
1007.4	0.825
1016.45	0.784
1025.51	0.69
1034.57	0.591
1043.62	0.593
1052.68	0.634
1061.74	0.659
1070.79	0.587
1079.85	0.451
1088.91	0.468
1097.96	0.603
1107.02	0.753
1116.08	0.834
1125.13	0.865
1134.19	0.887
1143.25	0.896
1152.3	0.899
1161.36	0.895
1170.42	0.885
1179.47	0.826
1188.53	0.841
1197.59	0.879
1206.64	0.879
1215.7	0.876
1224.76	0.87
1233.81	0.867
1242.87	0.861
1251.93	0.859
1260.98	0.856
1270.04	0.851
1279.1	0.848
1288.15	0.845
1297.21	0.848
1306.27	0.848
1315.32	0.84
1324.38	0.8
1333.43	0.751
1342.49	0.784
1351.55	0.796
1360.6	0.797
1369.66	0.782
1378.72	0.753
1387.77	0.718
1396.83	0.673
1405.89	0.596
1414.94	0.569
1424	0.594
1433.06	0.633
1442.11	0.67
1451.17	0.699
1460.23	0.718
1469.28	0.694
1478.34	0.699
1487.4	0.783
1496.45	0.814
1505.51	0.826
1514.57	0.83
1523.62	0.824
1532.68	0.812
1541.74	0.795
1550.79	0.773
1559.85	0.788
1568.91	0.805
1577.96	0.81
1587.02	0.804
1596.08	0.799
1605.13	0.792
1614.19	0.776
1623.25	0.773
1632.3	0.771
1641.36	0.755
1650.42	0.74
1659.47	0.742
1668.53	0.747
1677.59	0.759
1686.64	0.775
1695.7	0.793
1704.76	0.817
1713.81	0.838
1722.87	0.853
1731.93	0.872
1740.98	0.879
1750.04	0.884
1759.1	0.893
1768.15	0.895
1777.21	0.894
1786.27	0.895
1795.32	0.895
1804.38	0.902
1813.44	0.899
1822.49	0.903
1831.55	0.901
1840.61	0.899
1849.66	0.901
1858.72	0.904
1867.78	0.907
1876.83	0.903
1885.89	0.904
1894.95	0.906
1904	0.902
1913.06	0.902
1922.12	0.909
1931.17	0.909
1940.23	0.903
1949.28	0.899
1958.34	0.894
1967.4	0.892
1976.45	0.893
1985.51	0.893
1994.57	0.893
2003.62	0.893
2012.68	0.892
2021.74	0.891
2030.79	0.89
2039.85	0.889
2048.91	0.887
2057.96	0.886
2067.02	0.885
2076.08	0.884
2085.13	0.884
2094.19	0.882
2103.25	0.881
2112.3	0.879
2121.36	0.8773
2130.42	0.877
2139.47	0.877
2148.53	0.877
2157.59	0.878
2166.64	0.876
2175.7	0.8744
2184.76	0.874
2193.81	0.873
2202.87	0.8708
2211.93	0.8684
2220.98	0.8675
2230.04	0.866
2239.1	0.867
2248.15	0.8695
2257.21	0.873
2266.27	0.875
2275.32	0.876
2284.38	0.876
2293.44	0.878
2302.49	0.879
2311.55	0.8824
2320.61	0.8853
2329.66	0.8893
2338.72	0.892
2347.78	0.894
2356.83	0.895
2365.89	0.894
2374.95	0.892
2384	0.891
2393.06	0.892
2402.12	0.893
2411.17	0.893
2420.23	0.8941
2429.29	0.895
2438.34	0.895
2447.4	0.894
2456.46	0.893
2465.51	0.892
2474.57	0.893
2483.63	0.896
2492.68	0.899
2501.74	0.8961
2510.8	0.898
2519.85	0.899
2528.91	0.899
2537.97	0.898
2547.02	0.895
2556.08	0.8932
2565.13	0.8912
2574.19	0.889
2583.25	0.8852
2592.3	0.8822
2601.36	0.866
2610.42	0.8382
2619.47	0.8093
2628.53	0.8304
2637.59	0.8474
2646.64	0.858
2655.7	0.8554
2664.76	0.8514
2673.81	0.8484
2682.87	0.843
2691.93	0.8394
2700.98	0.8345
2710.04	0.8255
2719.1	0.817
2728.15	0.7995
2737.21	0.7859
2746.27	0.7616
2755.32	0.7278
2764.38	0.6905
2773.44	0.6475
2782.49	0.5928
2791.55	0.525
2800.61	0.4503
2809.66	0.355
2818.72	0.2838
2827.78	0.1958
2836.83	0.1144
2845.89	0.0705
2854.95	0.0791
2864	0.1254
2873.06	0.191
2882.12	0.2516
2891.17	0.3028
2900.23	0.354
2909.29	0.417
2918.34	0.4696
2927.4	0.492
2936.46	0.4646
2945.51	0.3899
2954.57	0.4002
2963.63	0.5009
2972.68	0.5588
2981.74	0.6256
2990.8	0.6507
2999.85	0.656
3008.91	0.657
3017.97	0.6541
3027.02	0.6443
3036.08	0.6276
3045.14	0.607
3054.19	0.5742
3063.25	0.4917
3072.31	0.387
3081.36	0.4534
3090.42	0.5636
3099.48	0.5784
3108.53	0.584
3117.59	0.58
3126.65	0.575
3135.7	0.5694
3144.76	0.5528
3153.82	0.5462
3162.87	0.5358
3171.93	0.5229
3180.98	0.5079
3190.04	0.4934
3199.1	0.472
3208.15	0.4611
3217.21	0.4437
3226.27	0.4231
3235.32	0.4012
3244.38	0.3854
3253.44	0.3685
3262.49	0.3579
3271.55	0.3503
3280.61	0.347
3289.66	0.346
3298.72	0.3483
3307.78	0.3543
3316.83	0.3625
3325.89	0.3754
3334.95	0.3931
3344	0.4138
3353.06	0.4337
3362.12	0.4671
3371.17	0.4956
3380.23	0.5443
3389.29	0.5762
3398.34	0.6001
3407.4	0.6213
3416.46	0.633
3425.51	0.6441
3434.57	0.656
3443.63	0.667
3452.68	0.6759
3461.74	0.6869
3470.8	0.7017
3479.85	0.7138
3488.91	0.7189
3497.97	0.7373
3507.02	0.7526
3516.08	0.7618
3525.14	0.7695
3534.19	0.7848
3543.25	0.7968
3552.31	0.8136
3561.36	0.8265
3570.42	0.8372
3579.48	0.8471
3588.53	0.8591
3597.59	0.8687
3606.65	0.8747
3615.7	0.8776
3624.76	0.8786
3633.82	0.8802
3642.87	0.882
3651.93	0.883
3660.99	0.886
3670.04	0.8936
3679.1	0.909
3688.16	0.919
3697.21	0.9255
3706.27	0.929
3715.33	0.9324
3724.38	0.934
3733.44	0.9344
3742.5	0.935
3751.55	0.936
3760.61	0.936
3769.67	0.936
3778.72	0.936
3787.78	0.936
3796.83	0.935
3805.89	0.934
3814.95	0.932
3824	0.9278
3833.06	0.9206
3842.12	0.9108
3851.17	0.9019
3860.23	0.9031
3869.29	0.9133
3878.34	0.9284
3887.4	0.9361
3896.46	0.936
3905.51	0.933
3914.57	0.93
3923.63	0.929
3932.68	0.93
3941.74	0.933
3950.8	0.9359
3959.85	0.9408
3968.91	0.943
3977.97	0.9392
