Infrared Spectrum: Propane, 2-(ethylthio)-
Formula: C 5 H 12 S
CAS: 5145-99-3
State: gas
Origin: Sadtler Research Labs Under US-EPA Contract
1/CM	ABSORBANCE
450	0.0300781
462	0.0145739
474	0.0117832
486	0.0269773
498	0.0142639
510	0.0206206
522	0.0187601
534	0.0108529
546	0.0189151
558	0.00837227
570	0.0168996
582	0.0240315
594	0.00527143
606	0.0137987
618	0.0231013
630	0.0262021
642	0.0328689
654	0.0167445
666	0.0122483
678	0.0249618
690	0.0150391
702	0.0150391
714	0.00790714
726	0.0105429
738	0.0179849
750	0.0224811
762	0.0280626
774	0.0272874
786	0.0213958
798	0.0164345
810	0.0117832
822	0.00697689
834	0.00542647
846	0.00651176
858	0.00914748
870	0.014729
882	0.0176748
894	0.0145739
906	0.0108529
918	0.0155042
930	0.022016
942	0.0212408
954	0.0314735
966	0.0573655
978	0.0651176
990	0.0369
1002	0.0192252
1014	0.0203105
1026	0.0293029
1038	0.0527143
1050	0.0725597
1062	0.0675983
1074	0.0556601
1086	0.0334891
1098	0.0235664
1110	0.0246517
1122	0.0279076
1134	0.0421714
1146	0.1107
1158	0.151941
1170	0.102483
1182	0.0345744
1194	0.022016
1206	0.0286828
1218	0.0679084
1230	0.235354
1242	0.414737
1254	0.390861
1266	0.237214
1278	0.157678
1290	0.0838777
1302	0.0567454
1314	0.0427916
1326	0.0311634
1338	0.0285277
1350	0.0513189
1362	0.117677
1374	0.196438
1386	0.210237
1398	0.128065
1410	0.0688386
1422	0.0767458
1434	0.13039
1446	0.22202
1458	0.272099
1470	0.222485
1482	0.131631
1494	0.0631021
1506	0.0361248
1518	0.022326
1530	0.0151941
1542	0.0142639
1554	0.0124034
1566	0.011008
1578	0.00992269
1590	0.00852731
1602	0.0100777
1614	0.011163
1626	0.0116282
1638	0.0117832
1650	0.0108529
1662	0.0114731
1674	0.0116282
1686	0.0141088
1698	0.0139538
1710	0.0137987
1722	0.0200004
1734	0.0226361
1746	0.0156592
1758	0.00868235
1770	0.00511639
1782	0.00341092
1794	0.00449622
1806	0.00434118
1818	0.00263571
1830	0.00217059
1842	0.00217059
1854	0.00108529
1866	0.00155042
1878	0.00139538
1890	0.00124034
1902	0.00108529
1914	0.00124034
1926	0.000930252
1938	0.00124034
1950	0.00077521
1962	0.00124034
1974	0.00077521
1986	0.000930252
1998	0.00201555
2010	0.00232563
2022	0.00217059
2034	0.00155042
2046	0.00155042
2058	0.00108529
2070	0.000465126
2082	0.000310084
2094	0.000155042
2106	0.000310084
2118	0.000310084
2130	0.000465126
2142	0.000310084
2154	0.000310084
2166	0.000930252
2178	0.00139538
2190	0.00139538
2202	0.00124034
2214	0.00201555
2226	0.00356597
2238	0.00496134
2250	0.00635672
2262	0.00558151
2274	0.00434118
2286	0.00418613
2298	0.00465126
2310	0.00418613
2322	0.0018605
2334	0.00170546
2346	0.00201555
2358	0.00279076
2370	0.00248067
2382	0.00403109
2394	0.00387605
2406	0.00496134
2418	0.00620168
2430	0.00573655
2442	0.00341092
2454	0.00279076
2466	0.0048063
2478	0.00635672
2490	0.00635672
2502	0.0048063
2514	0.00356597
2526	0.00279076
2538	0.00325588
2550	0.00356597
2562	0.00372101
2574	0.00403109
2586	0.00449622
2598	0.00790714
2610	0.00992269
2622	0.00868235
2634	0.00651176
2646	0.00496134
2658	0.00527143
2670	0.00635672
2682	0.00883739
2694	0.0117832
2706	0.0144189
2718	0.0196903
2730	0.0266672
2742	0.0268223
2754	0.022171
2766	0.0195353
2778	0.0179849
2790	0.0193803
2802	0.0282176
2814	0.0413962
2826	0.0581408
2838	0.0829475
2850	0.125584
2862	0.2383
2874	0.488227
2886	0.594741
2898	0.53474
2910	0.58916
2922	0.773194
2934	1.08746
2946	1.04405
2958	1.07165
2970	1.55042
2982	1.33057
2994	0.670092
3006	0.235199
3018	0.103413
3030	0.0677534
3042	0.0497685
3054	0.0378302
3066	0.0302332
3078	0.0271324
3090	0.0246517
3102	0.0232563
3114	0.022326
3126	0.0232563
3138	0.0237214
3150	0.0226361
3162	0.0234113
3174	0.0235664
3186	0.0243416
3198	0.0231013
3210	0.0209307
3222	0.0156592
3234	0.011008
3246	0.00899244
3258	0.00837227
3270	0.00945756
3282	0.00806218
3294	0.00852731
3306	0.00759706
3318	0.00728697
3330	0.00682185
3342	0.00496134
3354	0.00542647
3366	0.00465126
3378	0.00403109
3390	0.0058916
3402	0.0058916
3414	0.00527143
3426	0.00403109
3438	0.00372101
3450	0.00356597
3462	0.00279076
3474	0.00356597
3486	0.00248067
3498	0.0018605
3510	0.0029458
3522	0.0029458
3534	0.00279076
3546	0.00201555
3558	0.00372101
3570	0.00387605
3582	0.00248067
3594	0.00418613
3606	0.00356597
3618	0.00496134
3630	0.00511639
3642	0.00248067
3654	0.00449622
3666	0.00263571
3678	0.00449622
3690	0.00449622
3702	0.00170546
3714	0.00403109
3726	0.00155042
3738	0.00170546
3750	0.00527143
3762	0.0018605
3774	0.0029458
3786	0.00217059
3798	0.0018605
3810	0.00248067
3822	0.00604664
3834	0.00651176
3846	0.00248067
3858	0.00263571
3870	0.00248067
3882	0.00170546
3894	0.00232563
3906	0.00279076
3918	0.00403109
3930	0.00310084
3942	0.00248067
3954	0.00263571
3966	0.00682185
