Infrared Spectrum: ETHYLENE SULFIDE
Formula: C2 H4 S
CAS: 420-12-2
State: LIQUID (NEAT)
Class: COBLENTZ III
Instrument: BAIRD (GRATING)
Instrument parameters: NaCl PRISM
Sampling: TRANSMISSION
Path length: 0.003 CM
Resolution: 2
Origin: WYANDOTTE CHEMICALS CORP.
1/CM	TRANSMITTANCE
4000	0.8978
3991	0.8975
3982	0.8968
3973	0.896
3964	0.8955
3955	0.8957
3946	0.8957
3937	0.8965
3928	0.8974
3919	0.8984
3910	0.8995
3901	0.9006
3892	0.9018
3883	0.9028
3874	0.9045
3865	0.9063
3856	0.908
3847	0.9097
3838	0.9114
3829	0.9132
3820	0.9143
3811	0.9142
3802	0.913
3793	0.9091
3784	0.903
3775	0.8967
3766	0.8924
3757	0.8891
3748	0.8889
3739	0.8885
3730	0.8875
3721	0.885
3712	0.88
3703	0.8734
3694	0.8684
3685	0.8657
3676	0.8637
3667	0.863
3658	0.8625
3649	0.8618
3640	0.8614
3631	0.8612
3622	0.861
3613	0.861
3604	0.8618
3595	0.8625
3586	0.864
3577	0.866
3568	0.8688
3559	0.8737
3550	0.8792
3541	0.8845
3532	0.8881
3523	0.8888
3514	0.8891
3505	0.8887
3496	0.8884
3487	0.8881
3478	0.8874
3469	0.8868
3460	0.8861
3451	0.8856
3442	0.8852
3433	0.8848
3424	0.8853
3415	0.8863
3406	0.8871
3397	0.8881
3388	0.8889
3379	0.8898
3370	0.8901
3361	0.8903
3352	0.8904
3343	0.8905
3334	0.8901
3325	0.889
3316	0.8863
3307	0.8835
3298	0.8796
3289	0.8757
3280	0.8728
3271	0.8698
3262	0.8671
3253	0.8645
3244	0.862
3235	0.8599
3226	0.8578
3217	0.8556
3208	0.8531
3199	0.8497
3190	0.8464
3181	0.8423
3172	0.8366
3163	0.8305
3154	0.8228
3145	0.815
3136	0.8038
3127	0.7926
3118	0.7821
3109	0.7712
3100	0.7593
3091	0.7399
3082	0.7214
3073	0.704
3064	0.6653
3055	0.6615
3046	0.6604
3037	0.6525
3028	0.5748
3019	0.4762
3010	0.3772
3001	0.2775
2992	0.2116
2983	0.3294
2974	0.5776
2965	0.7199
2956	0.7372
2947	0.75
2938	0.7615
2929	0.7701
2920	0.7771
2911	0.7815
2902	0.784
2893	0.7846
2884	0.7834
2875	0.781
2866	0.7774
2857	0.7748
2848	0.7736
2839	0.7745
2830	0.7891
2821	0.8051
2812	0.8213
2803	0.8375
2794	0.854
2785	0.8587
2776	0.8607
2767	0.8617
2758	0.8625
2749	0.8635
2740	0.8644
2731	0.8651
2722	0.8658
2713	0.8665
2704	0.8673
2695	0.868
2686	0.8686
2677	0.8691
2668	0.8697
2659	0.8702
2650	0.8708
2641	0.871
2632	0.8712
2623	0.87
2614	0.8687
2605	0.8661
2596	0.8623
2587	0.8603
2578	0.8585
2569	0.8618
2560	0.8618
2551	0.8611
2542	0.8604
2533	0.8596
2524	0.8604
2515	0.8615
2506	0.8621
2497	0.862
2488	0.8617
2479	0.8597
2470	0.8575
2461	0.8557
2452	0.8554
2443	0.8551
2434	0.8563
2425	0.858
2416	0.8598
2407	0.8604
2398	0.8602
2389	0.8593
2380	0.8581
2371	0.8545
2362	0.8503
2353	0.8478
2344	0.8587
2335	0.8673
2326	0.869
2317	0.867
2308	0.862
2299	0.8568
2290	0.8516
2281	0.8473
2272	0.8471
2263	0.8527
2254	0.8575
2245	0.8538
2236	0.8471
2227	0.8407
2218	0.8428
2209	0.846
2200	0.8505
2191	0.8538
2182	0.8553
2173	0.8568
2164	0.858
2155	0.8593
2146	0.8604
2137	0.8603
2128	0.8594
2119	0.8549
2110	0.8465
2101	0.8341
2092	0.8168
2083	0.7988
2074	0.7818
2065	0.7749
2056	0.7514
2047	0.7267
2038	0.7348
2029	0.7517
2020	0.7728
2011	0.7991
2002	0.8212
1993	0.8366
1984	0.8345
1975	0.8334
1966	0.8305
1957	0.8245
1948	0.8174
1939	0.8125
1930	0.8085
1921	0.811
1912	0.824
1903	0.8331
1894	0.8365
1885	0.8365
1876	0.8297
1867	0.8191
1858	0.8103
1849	0.8008
1840	0.7989
1831	0.8071
1822	0.8078
1813	0.7621
1804	0.7168
1795	0.7684
1786	0.8178
1777	0.8225
1768	0.8193
1759	0.8225
1750	0.8314
1741	0.8341
1732	0.8293
1723	0.8233
1714	0.8207
1705	0.8262
1696	0.8234
1687	0.8245
1678	0.8218
1669	0.819
1660	0.819
1651	0.8185
1642	0.8158
1633	0.8105
1624	0.8095
1615	0.8135
1606	0.8214
1597	0.8243
1588	0.8256
1579	0.823
1570	0.8128
1561	0.8093
1552	0.8065
1543	0.8036
1534	0.7983
1525	0.7912
1516	0.7836
1507	0.7736
1498	0.7598
1489	0.7332
1480	0.713
1471	0.6919
1462	0.6083
1453	0.4034
1444	0.5022
1435	0.4503
1426	0.5438
1417	0.6543
1408	0.7228
1399	0.7474
1390	0.759
1381	0.7798
1372	0.7886
1363	0.7969
1354	0.8022
1345	0.8054
1336	0.8075
1327	0.8072
1318	0.8058
1309	0.8061
1300	0.806
1291	0.7981
1282	0.788
1273	0.7837
1264	0.7797
1255	0.7746
1246	0.7634
1237	0.7493
1228	0.7415
1219	0.7358
1210	0.7307
1201	0.7251
1192	0.7192
1183	0.7125
1174	0.7042
1165	0.6805
1156	0.6601
1147	0.6718
1138	0.6831
1129	0.6697
1120	0.621
1111	0.5941
1102	0.5969
1093	0.565
1084	0.4901
1075	0.369
1066	0.2679
1057	0.0491
1048	0.0249
1039	0.1202
1030	0.2562
1021	0.2784
1012	0.5014
1003	0.6044
994	0.6484
985	0.6631
976	0.6601
967	0.6305
958	0.6035
949	0.5462
940	0.353
931	0.4733
922	0.6207
913	0.6717
904	0.6912
895	0.7015
886	0.7041
877	0.7057
868	0.7051
859	0.7038
850	0.7021
841	0.6965
832	0.6676
823	0.5729
814	0.5883
805	0.693
796	0.719
787	0.7005
778	0.7161
769	0.7289
760	0.7406
751	0.7575
742	0.7725
733	0.784
724	0.7782
715	0.7699
706	0.7654
697	0.7531
688	0.7322
679	0.7011
670	0.6665
661	0.531
652	0.5951
643	0.616
634	0.5996
