Infrared Spectrum: 3-Methyl-1,4-pentadiene
Formula: C 6 H 10
CAS: 1115-08-8
State: gas
Instrument: HP-GC/MS/IRD
Origin: NIST Mass Spectrometry Data Center
1/CM	ABSORBANCE
550	0.00058
562	0.0002842
574	0.0003364
586	0.0002465
598	0.000348
610	0.0006554
622	0.0012557
634	0.0020532
646	0.0025723
658	0.0028652
670	0.0036279
682	0.0043848
694	0.0042543
706	0.0028739
718	0.0013572
730	0.00058
742	0.000377
754	0.0001305
766	2.32e-05
778	2.9e-05
790	0.0001798
802	0.0003045
814	0.0004669
826	0.0008816
838	0.0012963
850	0.0017023
862	0.0020909
874	0.0029116
886	0.006003
898	0.0147407
910	0.0247225
922	0.0279067
934	0.016791
946	0.0079489
958	0.0056753
970	0.0072732
982	0.0111041
994	0.0137257
1006	0.0113854
1018	0.0064757
1030	0.0039527
1042	0.003364
1054	0.0031726
1066	0.0025172
1078	0.0019256
1090	0.0013427
1102	0.0010353
1114	0.0009019
1126	0.0010788
1138	0.0009599
1150	0.000696
1162	0.0004234
1174	0.0003625
1186	0.0003625
1198	0.0003683
1210	0.000319
1222	0.0003538
1234	0.0004263
1246	0.0006989
1258	0.001218
1270	0.0018328
1282	0.0020416
1294	0.0015892
1306	0.0012615
1318	0.0010034
1330	0.0008787
1342	0.0009077
1354	0.0013862
1366	0.0022388
1378	0.002755
1390	0.0028681
1402	0.0036192
1414	0.0042775
1426	0.0037497
1438	0.0030827
1450	0.0031726
1462	0.0036569
1474	0.0024563
1486	0.0014297
1498	0.0006409
1510	0.000377
1522	0.0002929
1534	0.0003074
1546	0.0004495
1558	0.0006583
1570	0.0008004
1582	0.0010469
1594	0.0015109
1606	0.0026709
1618	0.0058348
1630	0.0090683
1642	0.0089987
1654	0.0052461
1666	0.0018444
1678	0.0009338
1690	0.0006757
1702	0.0005046
1714	0.0004234
1726	0.0003074
1738	0.0002088
1750	0.0001218
1762	0.0001189
1774	0.0001566
1786	0.0002291
1798	0.0003393
1810	0.000928
1822	0.0021286
1834	0.0027173
1846	0.0022881
1858	0.0010324
1870	0.0003683
1882	0.0001943
1894	0.0001943
1906	0.0001769
1918	0.0001131
1930	0.0001392
1942	0.0001363
1954	0.0002204
1966	0.0003364
1978	0.0003596
1990	0.0002842
2002	0.0001769
2014	8.99e-05
2026	0.0001073
2038	8.12e-05
2050	8.41e-05
2062	7.83e-05
2074	7.25e-05
2086	8.12e-05
2098	7.54e-05
2110	7.54e-05
2122	6.38e-05
2134	3.19e-05
2146	4.93e-05
2158	3.77e-05
2170	2.61e-05
2182	4.35e-05
2194	2.32e-05
2206	1.16e-05
2218	2.03e-05
2230	6.38e-05
2242	5.22e-05
2254	3.48e-05
2266	8.41e-05
2278	8.7e-05
2290	7.25e-05
2302	0.0001102
2314	8.41e-05
2326	0.0001189
2338	8.99e-05
2350	6.67e-05
2362	9.57e-05
2374	0.0001015
2386	0.0001508
2398	0.0001305
2410	0.0001566
2422	0.0001363
2434	0.0001363
2446	0.0001421
2458	0.0001537
2470	0.0001305
2482	9.86e-05
2494	6.67e-05
2506	0.0001363
2518	0.0001421
2530	0.0001682
2542	0.0002088
2554	0.0001769
2566	0.0001972
2578	0.000174
2590	0.0001537
2602	0.0001479
2614	0.0001131
2626	8.99e-05
2638	0.0001102
2650	9.86e-05
2662	0.000145
2674	0.0001131
2686	0.0001247
2698	0.0002117
2710	0.0002407
2722	0.0003654
2734	0.0003712
2746	0.0003596
2758	0.0002639
2770	0.0002639
2782	0.0002871
2794	0.0003596
2806	0.0005365
2818	0.0007917
2830	0.0010585
2842	0.0017371
2854	0.0034626
2866	0.0063075
2878	0.0089001
2890	0.0089552
2902	0.0082302
2914	0.0080881
2926	0.0091669
2938	0.0103733
2950	0.0132124
2962	0.0213643
2974	0.0286723
2986	0.0271817
2998	0.0179423
3010	0.0123482
3022	0.0084593
3034	0.0052577
3046	0.0046951
3058	0.0063539
3070	0.0106169
3082	0.0147523
3094	0.012789
3106	0.0080823
3118	0.0028159
3130	0.0014587
3142	0.0011107
3154	0.0008613
3166	0.0007192
3178	0.0006641
3190	0.0005046
3202	0.000493
3214	0.0004292
3226	0.0003219
3238	0.0003393
3250	0.0002639
3262	0.0002755
3274	0.0002697
3286	0.0002784
3298	0.0003161
3310	0.0001798
3322	0.0001537
3334	0.0001479
3346	0.0001102
3358	0.0001334
3370	0.0001537
3382	0.0001682
3394	0.0001421
3406	0.000145
3418	9.28e-05
3430	0.0001508
3442	8.99e-05
3454	3.19e-05
3466	5.51e-05
3478	4.93e-05
3490	7.83e-05
3502	9.28e-05
3514	6.67e-05
3526	9.28e-05
3538	8.99e-05
3550	7.54e-05
3562	2.61e-05
3574	8.7e-05
3586	5.8e-06
3598	5.22e-05
3610	7.25e-05
3622	0.0001131
3634	0.0001305
3646	4.06e-05
3658	7.83e-05
3670	0.000174
3682	0.000116
3694	0.0001508
3706	0.0001305
3718	0.0001218
3730	0.000116
3742	8.41e-05
3754	0.0001102
3766	0.0001421
3778	5.51e-05
3790	7.25e-05
3802	6.09e-05
3814	0.0001711
3826	0.0001566
3838	6.67e-05
