Infrared Spectrum: PROPANE, 1-IODO-
Formula: C3 H7 I
CAS: 107-08-4
State: LIQUID (NEAT)
Class: COBLENTZ III
Instrument: BAIRD (GRATING)
Instrument parameters: NaCl PRISM
Sampling: TRANSMISSION
Path length: 0.003 CM,
Resolution: 2
Origin: WYANDOTTE CHEMICALS CORP.
1/CM	TRANSMITTANCE
4000	0.9321
3991	0.9325
3982	0.9327
3973	0.9325
3964	0.9325
3955	0.9324
3946	0.9323
3937	0.9321
3928	0.9321
3919	0.9324
3910	0.9327
3901	0.9328
3892	0.9332
3883	0.9338
3874	0.9346
3865	0.9355
3856	0.9364
3847	0.9373
3838	0.9384
3829	0.9396
3820	0.9406
3811	0.9413
3802	0.9412
3793	0.9395
3784	0.9377
3775	0.9368
3766	0.9365
3757	0.9361
3748	0.9359
3739	0.9359
3730	0.936
3721	0.936
3712	0.9361
3703	0.9361
3694	0.9362
3685	0.9361
3676	0.9358
3667	0.9356
3658	0.9353
3649	0.935
3640	0.9347
3631	0.9343
3622	0.9335
3613	0.9325
3604	0.9316
3595	0.9307
3586	0.9296
3577	0.9285
3568	0.9273
3559	0.9262
3550	0.925
3541	0.9238
3532	0.9227
3523	0.9216
3514	0.9204
3505	0.9192
3496	0.9178
3487	0.9166
3478	0.9153
3469	0.914
3460	0.9128
3451	0.9118
3442	0.9109
3433	0.9099
3424	0.9092
3415	0.9088
3406	0.9086
3397	0.9083
3388	0.908
3379	0.9071
3370	0.9063
3361	0.905
3352	0.9027
3343	0.9015
3334	0.9009
3325	0.9001
3316	0.8992
3307	0.8982
3298	0.8967
3289	0.8953
3280	0.8938
3271	0.8917
3262	0.8891
3253	0.8863
3244	0.8832
3235	0.88
3226	0.8761
3217	0.8721
3208	0.8686
3199	0.8651
3190	0.8614
3181	0.8578
3172	0.8541
3163	0.8508
3154	0.8491
3145	0.8483
3136	0.8478
3127	0.8471
3118	0.8455
3109	0.8408
3100	0.8337
3091	0.8283
3082	0.824
3073	0.8202
3064	0.8147
3055	0.8051
3046	0.791
3037	0.7671
3028	0.7311
3019	0.6331
3010	0.5304
3001	0.4271
2992	0.3232
2983	0.2187
2974	0.1167
2965	0.1022
2956	0.1342
2947	0.1961
2938	0.248
2929	0.3378
2920	0.3855
2911	0.3982
2902	0.3999
2893	0.3994
2884	0.37
2875	0.3462
2866	0.372
2857	0.5201
2848	0.5417
2839	0.5698
2830	0.6836
2821	0.7883
2812	0.8128
2803	0.8268
2794	0.837
2785	0.8442
2776	0.8497
2767	0.8545
2758	0.8567
2749	0.854
2740	0.8518
2731	0.8542
2722	0.8643
2713	0.874
2704	0.8816
2695	0.8852
2686	0.8851
2677	0.8794
2668	0.8732
2659	0.8714
2650	0.8745
2641	0.8795
2632	0.8811
2623	0.877
2614	0.8738
2605	0.875
2596	0.8799
2587	0.8867
2578	0.8935
2569	0.8996
2560	0.9016
2551	0.9016
2542	0.8977
2533	0.8933
2524	0.892
2515	0.892
2506	0.8921
2497	0.8916
2488	0.8913
2479	0.8905
2470	0.8895
2461	0.8864
2452	0.8828
2443	0.8786
2434	0.8796
2425	0.8838
2416	0.8883
2407	0.8901
2398	0.8895
2389	0.883
2380	0.8755
2371	0.8696
2362	0.866
2353	0.872
2344	0.878
2335	0.8841
2326	0.8899
2317	0.8946
2308	0.8982
2299	0.8993
2290	0.8981
2281	0.8957
2272	0.8934
2263	0.891
2254	0.8889
2245	0.8868
2236	0.8845
2227	0.8818
2218	0.8787
2209	0.8725
2200	0.8682
2191	0.8656
2182	0.8641
2173	0.8636
2164	0.8642
2155	0.8675
2146	0.8816
2137	0.8907
2128	0.8875
2119	0.8875
2110	0.8882
2101	0.8897
2092	0.8912
2083	0.8924
2074	0.8921
2065	0.8885
2056	0.8821
2047	0.8825
2038	0.8875
2029	0.8921
2020	0.8956
2011	0.8936
2002	0.88
1993	0.8733
1984	0.8742
1975	0.8778
1966	0.8812
1957	0.8847
1948	0.8837
1939	0.8811
1930	0.8792
1921	0.8775
1912	0.8767
1903	0.8764
1894	0.8794
1885	0.8825
1876	0.8827
1867	0.8813
1858	0.8782
1849	0.8749
1840	0.8733
1831	0.8725
1822	0.8721
1813	0.8717
1804	0.8735
1795	0.8728
1786	0.869
1777	0.8673
1768	0.8657
1759	0.8646
1750	0.8647
1741	0.8601
1732	0.8502
1723	0.8443
1714	0.8471
1705	0.8503
1696	0.8518
1687	0.8518
1678	0.8499
1669	0.8473
1660	0.8448
1651	0.842
1642	0.838
1633	0.8341
1624	0.832
1615	0.8304
1606	0.8286
1597	0.8294
1588	0.8315
1579	0.8333
1570	0.8334
1561	0.8307
1552	0.8223
1543	0.8156
1534	0.8115
1525	0.804
1516	0.7874
1507	0.7634
1498	0.7312
1489	0.6744
1480	0.4424
1471	0.2389
1462	0.2882
1453	0.4485
1444	0.3864
1435	0.359
1426	0.6038
1417	0.6956
1408	0.7075
1399	0.6974
1390	0.4671
1381	0.491
1372	0.7247
1363	0.7656
1354	0.7182
1345	0.5735
1336	0.7215
1327	0.7328
1318	0.7661
1309	0.765
1300	0.7348
1291	0.5923
1282	0.2434
1273	0.2967
1264	0.6295
1255	0.7089
1246	0.7374
1237	0.7388
1228	0.7097
1219	0.6165
1210	0.426
1201	0.1299
1192	0.0377
1183	0.1063
1174	0.6125
1165	0.7195
1156	0.7362
1147	0.6757
1138	0.7305
1129	0.7721
1120	0.7884
1111	0.7948
1102	0.7703
1093	0.7188
1084	0.7103
1075	0.6669
1066	0.775
1057	0.7936
1048	0.7914
1039	0.7684
1030	0.7625
1021	0.696
1012	0.6312
1003	0.7543
994	0.7989
985	0.8209
976	0.8254
967	0.8275
958	0.8242
949	0.8149
940	0.8236
931	0.8231
922	0.816
913	0.8106
904	0.768
895	0.6156
886	0.6746
877	0.5098
868	0.7603
859	0.788
850	0.7891
841	0.7755
832	0.7589
823	0.7139
814	0.4657
805	0.6811
796	0.7322
787	0.7018
778	0.7001
769	0.5085
760	0.3958
751	0.7115
742	0.743
733	0.7122
724	0.6706
715	0.7219
706	0.7621
697	0.783
688	0.7904
679	0.7899
670	0.7826
661	0.7644
652	0.7617
643	0.7478
634	0.7304
