Infrared Spectrum: Propane, 1-iodo-
Formula: C 3 H 7 I
CAS: 107-08-4
State: gas
Origin: Sadtler Research Labs Under US-EPA Contract
1/CM	ABSORBANCE
450	0.00669795
462	0.00921869
474	0.00885858
486	0.0306089
498	0.0478219
510	0.0359385
522	0.0290245
534	0.0113793
546	0.0017285
558	0.00460934
570	0.0123876
582	0.0374509
594	0.0733174
606	0.0601375
618	0.0188695
630	0.0226146
642	0.00770625
654	0.00821039
666	0.0148363
678	0.00208861
690	0.0177172
702	0.0188695
714	0.010227
726	0.0187255
738	0.0245592
750	0.0362986
762	0.0913946
774	0.0799433
786	0.0226146
798	0.0300328
810	0.0419162
822	0.0477499
834	0.024127
846	0.00864252
858	0.013612
870	0.041052
882	0.0468136
894	0.0483261
906	0.0265037
918	0.0099389
930	0.0128918
942	0.0089306
954	0.00705806
966	0.0112353
978	0.010155
990	0.0099389
1002	0.0235509
1014	0.0256395
1026	0.0218944
1038	0.0184374
1050	0.0146203
1062	0.0215343
1074	0.0301048
1086	0.0250633
1098	0.0229747
1110	0.0203819
1122	0.0168529
1134	0.0191576
1146	0.0184374
1158	0.027368
1170	0.100397
1182	0.416714
1194	0.637818
1206	0.359745
1218	0.114873
1230	0.0419162
1242	0.0324094
1254	0.0417002
1266	0.128125
1278	0.221393
1290	0.197698
1302	0.0362986
1314	0.0232628
1326	0.0285203
1338	0.0553121
1350	0.047966
1362	0.0267198
1374	0.0519992
1386	0.0759101
1398	0.0750459
1410	0.044725
1422	0.0560323
1434	0.0915387
1446	0.119915
1458	0.126469
1470	0.118979
1482	0.075478
1494	0.0398996
1506	0.0242711
1518	0.0106591
1530	0.00950677
1542	0.00727412
1554	0.0075622
1566	0.0106591
1578	0.0105871
1590	0.00777827
1602	0.00871454
1614	0.00900262
1626	0.00684199
1638	0.00763423
1650	0.00676997
1662	0.00691402
1674	0.00648189
1686	0.00360105
1698	0.00388913
1710	0.00597774
1722	0.00381711
1734	0.00316892
1746	0.00266478
1758	0.00216063
1770	0.00453732
1782	0.00453732
1794	0.0027368
1806	0.00504147
1818	0.00352903
1830	0.00331297
1842	0.00532955
1854	0.00381711
1866	0.00489743
1878	0.00489743
1890	0.00244871
1902	0.00482541
1914	0.00525753
1926	0.0041052
1938	0.00525753
1950	0.00381711
1962	0.00374509
1974	0.00504147
1986	0.0027368
1998	0.00338499
2010	0.00604976
2022	0.00381711
2034	0.00432126
2046	0.00518551
2058	0.00331297
2070	0.00532955
2082	0.00525753
2094	0.00360105
2106	0.00482541
2118	0.00331297
2130	0.00259276
2142	0.00496945
2154	0.00352903
2166	0.00381711
2178	0.0058337
2190	0.00482541
2202	0.00777827
2214	0.0085705
2226	0.00777827
2238	0.00828241
2250	0.00619381
2262	0.00432126
2274	0.00619381
2286	0.00439328
2298	0.00345701
2310	0.00576168
2322	0.00345701
2334	0.00496945
2346	0.00727412
2358	0.00388913
2370	0.00864252
2382	0.00799433
2394	0.0072021
2406	0.00813837
2418	0.00482541
2430	0.00280882
2442	0.00460934
2454	0.00388913
2466	0.00489743
2478	0.0054736
2490	0.0027368
2502	0.00338499
2514	0.00532955
2526	0.0027368
2538	0.00439328
2550	0.00439328
2562	0.00266478
2574	0.00360105
2586	0.00208861
2598	0.00360105
2610	0.00821039
2622	0.00785029
2634	0.00705806
2646	0.00813837
2658	0.00590572
2670	0.0075622
2682	0.00914667
2694	0.00432126
2706	0.0058337
2718	0.00640987
2730	0.00676997
2742	0.0126757
2754	0.013612
2766	0.0128197
2778	0.0154845
2790	0.0156286
2802	0.0175011
2814	0.0203099
2826	0.0262877
2838	0.051495
2850	0.108536
2862	0.135183
2874	0.164856
2886	0.213254
2898	0.245087
2910	0.218584
2922	0.200723
2934	0.258627
2946	0.360969
2958	0.439544
2970	0.596118
2982	0.626223
2994	0.425788
3006	0.186606
3018	0.114801
3030	0.0674117
3042	0.0404038
3054	0.0243431
3066	0.0177172
3078	0.02067
3090	0.0196617
3102	0.0161327
3114	0.0154845
3126	0.0121715
3138	0.0131078
3150	0.0161327
3162	0.0143322
3174	0.0150524
3186	0.0118114
3198	0.00813837
3210	0.00950677
3222	0.00705806
3234	0.00554562
3246	0.00835444
3258	0.00576168
3270	0.00367307
3282	0.00691402
3294	0.00367307
3306	0.00424924
3318	0.00482541
3330	0.00295286
3342	0.00504147
3354	0.00633785
3366	0.00367307
3378	0.00619381
3390	0.0054736
3402	0.00352903
3414	0.00691402
3426	0.00352903
3438	0.00489743
3450	0.00676997
3462	0.00266478
3474	0.00518551
3486	0.00561764
3498	0.00324094
3510	0.00525753
3522	0.00453732
3534	0.00331297
3546	0.00381711
3558	0.00460934
3570	0.00100829
3582	0.00612178
3594	0.00360105
3606	0.00532955
3618	0.00475339
3630	0.00208861
3642	0.00612178
3654	0.00590572
3666	0.00489743
3678	0.00713008
3690	0.00612178
3702	0.00669795
3714	0.00871454
3726	0.00734614
3738	0.00597774
3750	0.010299
3762	0.0099389
3774	0.0121715
3786	0.013684
3798	0.00849848
3810	0.0111633
3822	0.0108031
3834	0.00842646
3846	0.013828
3858	0.0115234
3870	0.0118114
3882	0.0145482
3894	0.0113073
3906	0.0118114
3918	0.0145482
3930	0.0122436
3942	0.0151244
3954	0
3966	0.000936273
