Infrared Spectrum: .beta.-Aminopropionitrile
Formula: C 3 H 6 N 2
CAS: 151-18-8
State: gas
Instrument: HP-GC/MS/IRD
Origin: NIST Mass Spectrometry Data Center
1/CM	ABSORBANCE
550	0.0017505
562	0.0010695
574	0.0010815
586	0.0009435
598	0.0009075
610	0.001053
622	0.0013155
634	0.0016845
646	0.002157
658	0.0027735
670	0.003564
682	0.004716
694	0.006396
706	0.0086415
718	0.0108825
730	0.0133635
742	0.014769
754	0.014841
766	0.012765
778	0.0097515
790	0.007698
802	0.0062925
814	0.0049935
826	0.0040485
838	0.002808
850	0.002352
862	0.002052
874	0.0016605
886	0.0013965
898	0.001167
910	0.0010875
922	0.0011265
934	0.001215
946	0.001116
958	0.0009825
970	0.000981
982	0.00108
994	0.0012165
1006	0.0012705
1018	0.001008
1030	0.0012315
1042	0.0018555
1054	0.0033645
1066	0.0053445
1078	0.0061905
1090	0.005013
1102	0.003213
1114	0.0014685
1126	0.0007005
1138	0.0003495
1150	0.0001335
1162	6.75e-05
1174	2.85e-05
1186	3.45e-05
1198	0.000132
1210	0.0002025
1222	0.0003165
1234	0.000375
1246	0.000333
1258	0.000285
1270	0.0004155
1282	0.0005535
1294	0.0008265
1306	0.0011025
1318	0.0013785
1330	0.0015795
1342	0.0019845
1354	0.0024285
1366	0.0030705
1378	0.00354
1390	0.0033825
1402	0.0031545
1414	0.002799
1426	0.002859
1438	0.002703
1450	0.002316
1462	0.001791
1474	0.0014265
1486	0.001227
1498	0.000972
1510	0.000831
1522	0.0007815
1534	0.0008115
1546	0.00084
1558	0.0009285
1570	0.0012225
1582	0.001665
1594	0.002418
1606	0.0035685
1618	0.0048585
1630	0.0051225
1642	0.0044865
1654	0.00297
1666	0.001911
1678	0.0012855
1690	0.0009555
1702	0.0008145
1714	0.0007965
1726	0.000807
1738	0.0007995
1750	0.000771
1762	0.000798
1774	0.0008505
1786	0.000897
1798	0.0009495
1810	0.000996
1822	0.0009915
1834	0.0009855
1846	0.000921
1858	0.000924
1870	0.000909
1882	0.000906
1894	0.0009015
1906	0.0008835
1918	0.000894
1930	0.0008715
1942	0.0008685
1954	0.000879
1966	0.0008865
1978	0.000897
1990	0.000912
2002	0.0009435
2014	0.0009315
2026	0.000951
2038	0.000966
2050	0.000963
2062	0.00096
2074	0.0009885
2086	0.00099
2098	0.000987
2110	0.000996
2122	0.0010155
2134	0.0009735
2146	0.0009735
2158	0.000966
2170	0.0009675
2182	0.000972
2194	0.000996
2206	0.000996
2218	0.001059
2230	0.0012975
2242	0.001569
2254	0.00168
2266	0.0016155
2278	0.0012615
2290	0.00111
2302	0.0010185
2314	0.000996
2326	0.0009285
2338	0.0009105
2350	0.0009255
2362	0.0009315
2374	0.0009615
2386	0.000966
2398	0.0009585
2410	0.000978
2422	0.0009705
2434	0.0009975
2446	0.0009915
2458	0.0009795
2470	0.000954
2482	0.0009465
2494	0.000921
2506	0.000933
2518	0.0009555
2530	0.00093
2542	0.0009135
2554	0.0009615
2566	0.001005
2578	0.0010155
2590	0.001056
2602	0.0011055
2614	0.001116
2626	0.001119
2638	0.0011085
2650	0.001107
2662	0.001134
2674	0.001182
2686	0.001254
2698	0.00129
2710	0.001389
2722	0.001443
2734	0.001515
2746	0.001578
2758	0.0016515
2770	0.001623
2782	0.0016125
2794	0.0016125
2806	0.0017535
2818	0.0020685
2830	0.002574
2842	0.003396
2854	0.004665
2866	0.006153
2878	0.007638
2890	0.007494
2902	0.0070575
2914	0.0069975
2926	0.0079335
2938	0.009933
2950	0.0112905
2962	0.010983
2974	0.0088335
2986	0.005763
2998	0.0035295
3010	0.002184
3022	0.001578
3034	0.001284
3046	0.0012105
3058	0.001176
3070	0.001158
3082	0.001059
3094	0.000996
3106	0.001017
3118	0.0010185
3130	0.001029
3142	0.001032
3154	0.001071
3166	0.0010635
3178	0.001098
3190	0.001143
3202	0.0011265
3214	0.001191
3226	0.0011535
3238	0.001173
3250	0.001104
3262	0.00111
3274	0.001059
3286	0.00099
3298	0.000996
3310	0.0010425
3322	0.0010605
3334	0.001173
3346	0.001314
3358	0.0013635
3370	0.001362
3382	0.001293
3394	0.0012855
3406	0.0014865
3418	0.001641
3430	0.0016995
3442	0.001581
3454	0.001314
3466	0.001182
3478	0.001047
3490	0.0010845
3502	0.001014
3514	0.001029
3526	0.0009975
3538	0.001029
3550	0.001002
3562	0.000987
3574	0.000969
3586	0.0009765
3598	0.0009555
3610	0.000966
3622	0.0009705
3634	0.0009795
3646	0.00096
3658	0.0009555
3670	0.000915
3682	0.0009465
3694	0.000939
3706	0.00093
3718	0.0009315
3730	0.000936
3742	0.0009315
3754	0.0009225
3766	0.000987
3778	0.000945
3790	0.000948
3802	0.000972
3814	0.0009105
3826	0.0009405
3838	0.0009135
