Infrared Spectrum: CHLORO DIBROMO FLUORO METHANE
Formula: C Cl Br2 F
CAS: 353-55-9
State: SOLUTION (10% CCl4 FOR 5000-1330, 10% CS2 FOR 1330-625 CM^-^1)
Class: COBLENTZ
Instrument: Not specified, most likely a prism, grating, or hybrid spectrometer.
Sampling: TRANSMISSION
Path length: 0.0122 CM, 0.0115 CM
Resolution: 4
Origin: DOW CHEMICAL COMPANY
MICROMETERS	TRANSMITTANCE
2.055	0.894
2.09602	0.892
2.13703	0.89
2.17805	0.887
2.21906	0.89
2.26008	0.889
2.30109	0.885
2.34211	0.887
2.38313	0.889
2.42414	0.889
2.46516	0.892
2.50617	0.894
2.54719	0.895
2.5882	0.895
2.62922	0.894
2.67024	0.89
2.71125	0.89
2.75227	0.887
2.79328	0.883
2.8343	0.878
2.87532	0.875
2.91633	0.875
2.95735	0.878
2.99836	0.877
3.03938	0.877
3.08039	0.875
3.12141	0.878
3.16243	0.882
3.20344	0.882
3.24446	0.889
3.28547	0.883
3.32649	0.883
3.3675	0.883
3.40852	0.889
3.44954	0.89
3.49055	0.89
3.53157	0.887
3.57258	0.89
3.6136	0.89
3.65461	0.89
3.69563	0.889
3.73665	0.89
3.77766	0.89
3.81868	0.89
3.85969	0.89
3.90071	0.889
3.94173	0.889
3.98274	0.89
4.02376	0.892
4.06477	0.89
4.10579	0.889
4.1468	0.892
4.18782	0.892
4.22884	0.889
4.26985	0.878
4.31087	0.868
4.35188	0.87
4.3929	0.88
4.43391	0.885
4.47493	0.892
4.51595	0.894
4.55696	0.89
4.59798	0.889
4.63899	0.892
4.68001	0.883
4.72102	0.866
4.76204	0.853
4.80306	0.877
4.84407	0.89
4.88509	0.892
4.9261	0.889
4.96712	0.89
5.00813	0.89
5.04915	0.892
5.09017	0.894
5.13118	0.89
5.1722	0.894
5.21321	0.894
5.25423	0.892
5.29525	0.89
5.33626	0.89
5.37728	0.892
5.41829	0.892
5.45931	0.889
5.50032	0.89
5.54134	0.892
5.58236	0.89
5.62337	0.89
5.66439	0.89
5.7054	0.89
5.74642	0.89
5.78743	0.877
5.82845	0.863
5.86947	0.873
5.91048	0.883
5.9515	0.885
5.99251	0.887
6.03353	0.882
6.07454	0.868
6.11556	0.861
6.15658	0.848
6.19759	0.8
6.23861	0.721
6.27962	0.641
6.32064	0.61
6.36166	0.568
6.40267	0.503
6.44369	0.462
6.4847	0.517
6.52572	0.597
6.56673	0.643
6.60775	0.703
6.64877	0.757
6.68978	0.805
6.7308	0.836
6.77181	0.853
6.81283	0.868
6.85384	0.873
6.89486	0.88
6.93588	0.877
6.97689	0.872
7.01791	0.868
7.05892	0.868
7.09994	0.872
7.14095	0.875
7.18197	0.877
7.22299	0.883
7.264	0.883
7.30502	0.883
7.34603	0.885
7.38705	0.889
7.42807	0.889
7.46908	0.883
7.5101	0.877
7.55111	0.87
7.59213	0.87
7.63314	0.873
7.67416	0.865
7.71518	0.854
7.75619	0.853
7.79721	0.844
7.83822	0.844
7.87924	0.844
7.92025	0.834
7.96127	0.831
8.00229	0.825
8.0433	0.825
8.08432	0.825
8.12533	0.82
8.16635	0.812
8.20736	0.796
8.24838	0.781
8.2894	0.771
8.33041	0.769
8.37143	0.754
8.41244	0.755
8.45346	0.769
8.49447	0.762
8.53549	0.73
8.57651	0.718
8.61752	0.733
8.65854	0.742
8.69955	0.747
8.74057	0.749
8.78159	0.75
8.8226	0.752
8.86362	0.754
8.90463	0.754
8.94565	0.754
8.98666	0.752
9.02768	0.749
9.0687	0.732
9.10971	0.715
9.15073	0.711
9.19174	0.704
9.23276	0.667
9.27377	0.617
9.31479	0.518
9.35581	0.348
9.39682	0.15
9.43784	0.032
9.47885	0.032
9.51987	0.114
9.56088	0.324
9.6019	0.508
9.64292	0.571
9.68393	0.627
9.72495	0.692
9.76596	0.728
9.80698	0.749
9.848	0.752
9.88901	0.757
9.93003	0.764
9.97104	0.764
10.0121	0.769
10.0531	0.784
10.0941	0.802
10.1351	0.805
10.1761	0.807
10.2171	0.81
10.2582	0.812
10.2992	0.813
10.3402	0.813
10.3812	0.813
10.4222	0.813
10.4632	0.812
10.5042	0.81
10.5453	0.81
10.5863	0.81
10.6273	0.812
10.6683	0.813
10.7093	0.815
10.7503	0.815
10.7914	0.815
10.8324	0.819
10.8734	0.831
10.9144	0.829
10.9554	0.831
10.9964	0.831
11.0375	0.832
11.0785	0.831
11.1195	0.827
11.1605	0.82
11.2015	0.807
11.2425	0.8
11.2835	0.793
11.3246	0.778
11.3656	0.762
11.4066	0.754
11.4476	0.742
11.4886	0.73
11.5296	0.711
11.5707	0.699
11.6117	0.689
11.6527	0.684
11.6937	0.68
11.7347	0.684
11.7757	0.703
11.8168	0.73
11.8578	0.75
11.8988	0.759
11.9398	0.762
11.9808	0.762
12.0218	0.759
12.0628	0.735
12.1039	0.699
12.1449	0.653
12.1859	0.556
12.2269	0.348
12.2679	0.191
12.3089	0.061
12.35	0.046
12.391	0.104
12.432	0.201
12.473	0.271
12.514	0.247
12.555	0.109
12.5961	0.03
12.6371	0.015
12.6781	0.023
12.7191	0.063
12.7601	0.133
12.8011	0.204
12.8421	0.247
12.8832	0.244
12.9242	0.228
12.9652	0.247
13.0062	0.303
13.0472	0.406
13.0882	0.436
13.1293	0.438
13.1703	0.433
13.2113	0.423
13.2523	0.394
13.2933	0.339
13.3343	0.237
13.3754	0.127
13.4164	0.039
13.4574	0.001
13.4984	0
13.5394	0
13.5804	0.017
13.6214	0.1
13.6625	0.238
13.7035	0.373
13.7445	0.482
13.7855	0.53
13.8265	0.554
13.8675	0.559
13.9086	0.568
13.9496	0.576
13.9906	0.605
14.0316	0.636
14.0726	0.651
14.1136	0.668
14.1547	0.668
14.1957	0.665
14.2367	0.655
14.2777	0.646
14.3187	0.646
14.3597	0.65
14.4007	0.653
14.4418	0.655
14.4828	0.655
14.5238	0.651
14.5648	0.648
14.6058	0.643
14.6468	0.634
14.6879	0.626
14.7289	0.621
14.7699	0.616
14.8109	0.607
14.8519	0.598
14.8929	0.59
14.9339	0.583
14.975	0.581
15.016	0.578
15.057	0.559
15.098	0.547
15.139	0.537
15.18	0.529
15.2211	0.518
15.2621	0.508
15.3031	0.498
15.3441	0.486
15.3851	0.481
15.4261	0.462
15.4672	0.455
15.5082	0.45
15.5492	0.445
15.5902	0.438
15.6312	0.431
15.6722	0.428
15.7132	0.421
15.7543	0.418
15.7953	0.416
15.8363	0.414
15.8773	0.409
15.9183	0.409
