Infrared Spectrum: 3,3-Dimethyl-1-butyne
Formula: C 6 H 10
CAS: 917-92-0
State: gas
Instrument: HP-GC/MS/IRD
Origin: NIST Mass Spectrometry Data Center
1/CM	ABSORBANCE
550	0.0050426
562	0.0029146
574	0.0014212
586	0.0010678
598	0.0015922
610	0.0048602
622	0.0173774
634	0.038
646	0.017822
658	0.0048412
670	0.0014212
682	0.000779
694	0.0005928
706	0.0004066
718	0.0003154
730	0.0002432
742	0.0002394
754	0.00019
766	0.0002356
778	0.0001862
790	0.0002052
802	0.0002774
814	0.0002812
826	0.0002356
838	0.0001748
850	0.0001026
862	0.0001596
874	0.000304
886	0.000361
898	0.0003192
910	0.0002812
922	0.0002394
934	0.0001938
946	0.0001178
958	3.42e-05
970	9.12e-05
982	0.0001292
994	0.0001672
1006	0.0002508
1018	0.0002736
1030	0.000342
1042	0.000285
1054	0.0002356
1066	0.0002622
1078	0.00038
1090	0.0003382
1102	0.0003116
1114	0.0002166
1126	0.000247
1138	0.0002926
1150	0.0004902
1162	0.0007334
1174	0.0013528
1186	0.0028614
1198	0.0049476
1210	0.0047424
1222	0.0033858
1234	0.00798
1246	0.0119776
1258	0.011381
1270	0.0072656
1282	0.0016188
1294	0.000589
1306	0.0003876
1318	0.0003306
1330	0.0005244
1342	0.0014782
1354	0.0033174
1366	0.0056126
1378	0.0039748
1390	0.0025346
1402	0.0011058
1414	0.0009196
1426	0.0009652
1438	0.001862
1450	0.0030514
1462	0.0044156
1474	0.0040926
1486	0.0029298
1498	0.0018354
1510	0.0006574
1522	0.000342
1534	0.0002394
1546	0.000171
1558	0.000171
1570	0.000171
1582	0.0001368
1594	0.0001216
1606	0.0001216
1618	0.0001748
1630	0.0001558
1642	0.0001748
1654	0.0002166
1666	0.000171
1678	0.0001368
1690	0.000133
1702	0.000152
1714	0.000152
1726	0.0001292
1738	0.0001406
1750	0.0001178
1762	0.000114
1774	0.0001368
1786	0.000114
1798	0.0001064
1810	0.0001026
1822	0.0001216
1834	0.000114
1846	0.0001026
1858	8.36e-05
1870	9.5e-05
1882	0.0001444
1894	0.0001292
1906	0.0001064
1918	0.0001064
1930	0.0001216
1942	0.0001216
1954	8.36e-05
1966	4.94e-05
1978	4.56e-05
1990	4.94e-05
2002	5.7e-05
2014	5.32e-05
2026	6.84e-05
2038	0.0001064
2050	0.0001292
2062	0.0002242
2074	0.000475
2086	0.0008512
2098	0.001235
2110	0.0012426
2122	0.0009614
2134	0.0005776
2146	0.0003762
2158	0.0001558
2170	6.08e-05
2182	4.18e-05
2194	1.52e-05
2206	3.42e-05
2218	2.66e-05
2230	6.84e-05
2242	7.22e-05
2254	8.74e-05
2266	0.0001026
2278	0.0001254
2290	0.0001026
2302	9.12e-05
2314	6.84e-05
2326	1.52e-05
2338	3.8e-05
2350	3.8e-06
2362	2.28e-05
2374	2.28e-05
2386	7.22e-05
2398	5.7e-05
2410	5.7e-05
2422	4.94e-05
2434	7.6e-06
2446	1.9e-05
2458	3.42e-05
2470	1.52e-05
2482	6.46e-05
2494	1.52e-05
2506	6.46e-05
2518	3.04e-05
2530	1.9e-05
2542	4.18e-05
2554	6.08e-05
2566	7.98e-05
2578	0.0001178
2590	9.88e-05
2602	7.98e-05
2614	9.5e-05
2626	8.36e-05
2638	0.0001102
2650	0.0001254
2662	0.0001064
2674	0.0001368
2686	0.0002204
2698	0.0003534
2710	0.0002964
2722	0.0003496
2734	0.0003154
2746	0.000285
2758	0.0003002
2770	0.0003306
2782	0.000418
2794	0.0005852
2806	0.0007068
2818	0.0007638
2830	0.0009272
2842	0.0013148
2854	0.0026676
2866	0.005206
2878	0.0077178
2890	0.0080978
2902	0.0092074
2914	0.0104766
2926	0.011533
2938	0.0133228
2950	0.0161158
2962	0.0265772
2974	0.0354388
2986	0.0311258
2998	0.0151392
3010	0.0040546
3022	0.0011932
3034	0.0006574
3046	0.0004826
3058	0.0003838
3070	0.0004104
3082	0.0004294
3094	0.0004294
3106	0.0003724
3118	0.0004636
3130	0.0005168
3142	0.0005586
3154	0.0005928
3166	0.0005244
3178	0.000437
3190	0.0004902
3202	0.0005168
3214	0.0004218
3226	0.0004864
3238	0.0005396
3250	0.0006156
3262	0.0008208
3274	0.0012844
3286	0.0028424
3298	0.0045372
3310	0.009158
3322	0.0115748
3334	0.0092302
3346	0.0053428
3358	0.0018886
3370	0.0008056
3382	0.0003078
3394	0.0001368
3406	0.000152
3418	0.0001178
3430	4.94e-05
3442	0.0001064
3454	7.22e-05
3466	9.12e-05
3478	0.0001406
3490	0.00019
3502	0.0002242
3514	0.0002432
3526	0.0001444
3538	0.0001786
3550	0.0001064
3562	6.08e-05
3574	3.04e-05
3586	6.08e-05
3598	6.46e-05
3610	0.0001254
3622	5.7e-05
3634	4.56e-05
3646	7.22e-05
3658	9.12e-05
3670	7.6e-06
3682	8.36e-05
3694	5.32e-05
3706	5.32e-05
3718	4.18e-05
3730	7.22e-05
3742	1.14e-05
3754	2.66e-05
3766	2.28e-05
3778	7.98e-05
3790	7.22e-05
3802	4.94e-05
3814	8.74e-05
3826	9.5e-05
3838	0.0001216
