Infrared Spectrum: 3-Butyn-1-ol
Formula: C 4 H 6 O
CAS: 927-74-2
State: gas
Instrument: HP-GC/MS/IRD
Origin: NIST Mass Spectrometry Data Center
1/CM	ABSORBANCE
550	0.0005852
562	0.0008274
574	0.0004718
586	0.0004704
598	0.0006762
610	0.0016338
622	0.0045976
634	0.0112868
646	0.0118916
658	0.0046452
670	0.0014644
682	0.000581
694	0.0001722
706	0.0001246
718	8.12e-05
730	0.0001624
742	0.000133
754	0
766	7.28e-05
778	9.24e-05
790	0.0001484
802	0.0001918
814	0.0003766
826	0.0005754
838	0.000707
850	0.0006314
862	0.000616
874	0.000455
886	0.0003304
898	0.0002954
910	0.0003206
922	0.0003206
934	0.0005614
946	0.0007714
958	0.0008666
970	0.0009114
982	0.0011452
994	0.0015106
1006	0.0019852
1018	0.0031598
1030	0.00567
1042	0.0082726
1054	0.0091308
1066	0.0061754
1078	0.0040992
1090	0.002079
1102	0.0010808
1114	0.0006958
1126	0.0005768
1138	0.000539
1150	0.000623
1162	0.0007238
1174	0.0008932
1186	0.000973
1198	0.0011284
1210	0.0011102
1222	0.0011914
1234	0.0015442
1246	0.0025452
1258	0.0027524
1270	0.0027328
1282	0.0016996
1294	0.0011662
1306	0.0010962
1318	0.0011424
1330	0.0012138
1342	0.0012362
1354	0.0012222
1366	0.001547
1378	0.001967
1390	0.0020622
1402	0.0018284
1414	0.001393
1426	0.0010486
1438	0.000889
1450	0.0006944
1462	0.0005278
1474	0.0004494
1486	0.0003878
1498	0.0002968
1510	0.0002394
1522	0.0001806
1534	0.0001666
1546	0.000119
1558	0.0001442
1570	8.26e-05
1582	7.56e-05
1594	4.62e-05
1606	8.26e-05
1618	6.86e-05
1630	4.48e-05
1642	7.28e-05
1654	9.52e-05
1666	4.62e-05
1678	3.64e-05
1690	5.88e-05
1702	7.14e-05
1714	5.88e-05
1726	2.8e-05
1738	4.34e-05
1750	2.94e-05
1762	9.8e-06
1774	4.9e-05
1786	7e-05
1798	7.14e-05
1810	5.46e-05
1822	3.22e-05
1834	5.6e-06
1846	5.04e-05
1858	2.24e-05
1870	6.02e-05
1882	9.8e-05
1894	9.38e-05
1906	6.3e-05
1918	5.04e-05
1930	7.28e-05
1942	4.76e-05
1954	2.94e-05
1966	4.76e-05
1978	6.58e-05
1990	4.06e-05
2002	5.46e-05
2014	5.74e-05
2026	6.86e-05
2038	8.12e-05
2050	9.94e-05
2062	0.0001512
2074	0.0001568
2086	0.00021
2098	0.000301
2110	0.0003878
2122	0.00042
2134	0.0003528
2146	0.0001876
2158	0.0001022
2170	7.7e-05
2182	7.84e-05
2194	9.38e-05
2206	7.14e-05
2218	4.34e-05
2230	7.56e-05
2242	7.56e-05
2254	6.16e-05
2266	8.96e-05
2278	3.78e-05
2290	5.74e-05
2302	8.54e-05
2314	7.98e-05
2326	8.68e-05
2338	0.0001162
2350	9.52e-05
2362	0.0001162
2374	0.0001036
2386	8.54e-05
2398	6.16e-05
2410	0.0001148
2422	0.0001022
2434	5.6e-05
2446	6.72e-05
2458	4.2e-05
2470	8.26e-05
2482	8.82e-05
2494	6.3e-05
2506	5.32e-05
2518	7.28e-05
2530	5.04e-05
2542	6.16e-05
2554	1.26e-05
2566	5.6e-06
2578	5.46e-05
2590	7.7e-05
2602	4.06e-05
2614	6.44e-05
2626	0.0001008
2638	8.4e-05
2650	0.0001106
2662	0.0001148
2674	0.0001736
2686	0.0002198
2698	0.0001876
2710	0.0002114
2722	0.0001834
2734	0.0002352
2746	0.000238
2758	0.0002338
2770	0.0002814
2782	0.0002478
2794	0.0002828
2806	0.0003206
2818	0.0004382
2830	0.0005516
2842	0.0007686
2854	0.0010388
2866	0.0015092
2878	0.0022344
2890	0.002926
2902	0.0029582
2914	0.0031752
2926	0.003409
2938	0.0038136
2950	0.0042098
2962	0.003759
2974	0.002793
2986	0.0020636
2998	0.0010472
3010	0.0005348
3022	0.0002744
3034	0.0001106
3046	0.0001148
3058	0.0001232
3070	0.0001456
3082	8.12e-05
3094	2.52e-05
3106	6.16e-05
3118	1.26e-05
3130	7e-05
3142	4.62e-05
3154	6.3e-05
3166	5.32e-05
3178	3.08e-05
3190	3.78e-05
3202	6.86e-05
3214	1.82e-05
3226	1.4e-05
3238	3.64e-05
3250	0.0002156
3262	0.000245
3274	0.0005068
3286	0.0009758
3298	0.0020888
3310	0.0033642
3322	0.0047698
3334	0.0037716
3346	0.0025382
3358	0.000651
3370	0.0003318
3382	0.0002324
3394	8.96e-05
3406	8.82e-05
3418	7.14e-05
3430	0.000119
3442	0.0001274
3454	7.7e-05
3466	4.34e-05
3478	8.26e-05
3490	7e-05
3502	0.0001036
3514	0.0001134
3526	0.0001582
3538	7.42e-05
3550	9.66e-05
3562	0.0001778
3574	7.42e-05
3586	0.0001834
3598	0.0003262
3610	0.000805
3622	0.001071
3634	0.0011592
3646	0.001197
3658	0.0011676
3670	0.0013062
3682	0.0009968
3694	0.0005712
3706	0.000245
3718	0.000266
3730	0.0003024
3742	0.0002548
3754	0.000252
3766	0.0001456
3778	0.0001008
3790	0.000105
3802	0.0001176
3814	0.000105
3826	0.0001666
3838	0.0001624
