Infrared Spectrum: 2,2-DICHLOROBUTANE
Formula: C4 H8 Cl2
CAS: 4279-22-5
Class: COBLENTZ
Instrument: Not specified, most likely a prism, grating, or hybrid spectrometer.
Sampling: TRANSMISSION
Path length: 0.0025 CM
Resolution: 4
Origin: W.T. BOLLETER
MICROMETERS	TRANSMITTANCE
14.519	0.016
14.5895	0.016
14.66	0.016
14.7305	0.017
14.8011	0.019
14.8716	0.025
14.9421	0.028
15.0126	0.041
15.0831	0.044
15.1536	0.039
15.2241	0.03
15.2947	0.017
15.3652	0.016
15.4357	0.016
15.5062	0.016
15.5767	0.016
15.6472	0.016
15.7177	0.017
15.7883	0.019
15.8588	0.023
15.9293	0.037
15.9998	0.057
16.0703	0.118
16.1408	0.184
16.2113	0.248
16.2819	0.302
16.3524	0.373
16.4229	0.413
16.4934	0.443
16.5639	0.474
16.6344	0.481
16.7049	0.486
16.7755	0.491
16.846	0.491
16.9165	0.486
16.987	0.465
17.0575	0.418
17.128	0.35
17.1985	0.27
17.2691	0.184
17.3396	0.11
17.4101	0.06
17.4806	0.042
17.5511	0.03
17.6216	0.026
17.6921	0.025
17.7627	0.026
17.8332	0.039
17.9037	0.051
17.9742	0.071
18.0447	0.1
18.1152	0.089
18.1857	0.06
18.2563	0.042
18.3268	0.035
18.3973	0.03
18.4678	0.03
18.5383	0.046
18.6088	0.066
18.6793	0.121
18.7499	0.198
18.8204	0.271
18.8909	0.354
18.9614	0.427
19.0319	0.502
19.1024	0.549
19.1729	0.599
19.2435	0.647
19.314	0.679
19.3845	0.71
19.455	0.737
19.5255	0.758
19.596	0.774
19.6665	0.785
19.7371	0.79
19.8076	0.785
19.8781	0.778
19.9486	0.767
20.0191	0.742
20.0896	0.703
20.1601	0.66
20.2307	0.626
20.3012	0.592
20.3717	0.579
20.4422	0.601
20.5127	0.651
20.5832	0.701
20.6537	0.756
20.7243	0.797
20.7948	0.822
20.8653	0.842
20.9358	0.855
21.0063	0.871
21.0768	0.881
21.1473	0.889
21.2179	0.896
21.2884	0.903
21.3589	0.908
21.4294	0.915
21.4999	0.921
21.5704	0.926
21.6409	0.928
21.7115	0.928
21.782	0.926
21.8525	0.926
21.923	0.923
21.9935	0.921
22.064	0.914
22.1345	0.908
22.2051	0.908
22.2756	0.91
22.3461	0.91
22.4166	0.912
22.4871	0.912
22.5576	0.91
22.6281	0.908
22.6987	0.906
22.7692	0.903
22.8397	0.899
22.9102	0.896
22.9807	0.892
23.0512	0.887
23.1217	0.88
23.1923	0.867
23.2628	0.853
23.3333	0.84
23.4038	0.822
23.4743	0.808
23.5448	0.765
23.6153	0.731
23.6859	0.67
23.7564	0.606
23.8269	0.518
23.8974	0.42
23.9679	0.33
24.0384	0.225
24.1089	0.143
24.1795	0.098
24.25	0.073
24.3205	0.067
24.391	0.075
24.4615	0.118
24.532	0.193
24.6025	0.262
24.6731	0.347
24.7436	0.425
24.8141	0.475
24.8846	0.574
24.9551	0.61
25.0256	0.656
25.0961	0.697
25.1667	0.724
25.2372	0.749
25.3077	0.763
25.3782	0.779
25.4487	0.796
25.5192	0.806
25.5897	0.815
25.6603	0.822
25.7308	0.828
25.8013	0.83
25.8718	0.826
25.9423	0.819
26.0128	0.81
26.0833	0.792
26.1539	0.785
26.2244	0.774
26.2949	0.753
26.3654	0.72
26.4359	0.683
26.5064	0.652
26.5769	0.615
26.6474	0.549
26.718	0.497
26.7885	0.427
26.859	0.363
26.9295	0.302
27	0.259
27.0705	0.23
27.141	0.189
27.2116	0.169
27.2821	0.162
27.3526	0.157
27.4231	0.152
27.4936	0.143
27.5641	0.112
27.6346	0.1
27.7052	0.078
27.7757	0.062
27.8462	0.05
27.9167	0.044
27.9872	0.044
28.0577	0.048
28.1282	0.057
28.1988	0.078
28.2693	0.119
28.3398	0.164
28.4103	0.234
28.4808	0.305
28.5513	0.375
28.6218	0.449
28.6924	0.513
28.7629	0.567
28.8334	0.611
28.9039	0.652
28.9744	0.686
29.0449	0.74
29.1154	0.763
29.186	0.799
29.2565	0.817
29.327	0.837
29.3975	0.862
29.468	0.872
29.5385	0.887
29.609	0.901
29.6796	0.906
29.7501	0.919
29.8206	0.924
29.8911	0.928
29.9616	0.93
30.0321	0.937
30.1026	0.939
30.1732	0.939
30.2437	0.94
30.3142	0.94
30.3847	0.94
30.4552	0.939
30.5257	0.933
30.5962	0.923
30.6668	0.912
30.7373	0.905
30.8078	0.898
30.8783	0.892
30.9488	0.885
31.0193	0.883
31.0898	0.885
31.1604	0.892
31.2309	0.899
31.3014	0.906
31.3719	0.921
31.4424	0.928
31.5129	0.937
31.5834	0.948
31.654	0.955
31.7245	0.964
31.795	0.969
31.8655	0.973
31.936	0.973
32.0065	0.973
32.077	0.974
32.1476	0.978
32.2181	0.978
32.2886	0.976
32.3591	0.978
32.4296	0.974
32.5001	0.974
32.5706	0.974
32.6412	0.973
32.7117	0.973
32.7822	0.974
32.8527	0.976
32.9232	0.976
32.9937	0.976
33.0642	0.973
33.1348	0.969
33.2053	0.964
33.2758	0.96
33.3463	0.957
33.4168	0.953
33.4873	0.957
33.5578	0.955
33.6284	0.953
33.6989	0.951
33.7694	0.944
33.8399	0.937
33.9104	0.935
33.9809	0.937
34.0514	0.928
34.122	0.914
34.1925	0.908
34.263	0.899
34.3335	0.89
34.404	0.885
34.4745	0.874
34.545	0.865
34.6156	0.842
34.6861	0.831
34.7566	0.822
34.8271	0.813
34.8976	0.805
34.9681	0.788
35.0386	0.779
35.1092	0.771
35.1797	0.763
35.2502	0.754
35.3207	0.737
35.3912	0.72
35.4617	0.701
35.5322	0.665
35.6028	0.649
35.6733	0.631
35.7438	0.617
35.8143	0.604
35.8848	0.599
35.9553	0.588
36.0258	0.592
36.0964	0.588
36.1669	0.588
36.2374	0.586
36.3079	0.579
36.3784	0.574
36.4489	0.576
36.5194	0.574
36.59	0.572
36.6605	0.574
36.731	0.576
36.8015	0.576
36.872	0.576
36.9425	0.577
37.013	0.577
37.0836	0.579
37.1541	0.576
37.2246	0.576
37.2951	0.576
37.3656	0.576
37.4361	0.577
37.5066	0.577
37.5772	0.576
37.6477	0.576
37.7182	0.577
37.7887	0.581
37.8592	0.579
37.9297	0.581
38.0002	0.579
