Infrared Spectrum: 1,2-Ethanediamine, N-ethyl-
Formula: C 4 H 12 N 2
CAS: 110-72-5
State: gas
Origin: Sadtler Research Labs Under US-EPA Contract
1/CM	ABSORBANCE
450	0.00374044
462	0.00303279
474	0.00495356
486	0.00808744
498	0.0210273
510	0.0332596
522	0.0353825
534	0.0253743
546	0.0142541
558	0.00980602
570	0.008694
582	0.0121312
594	0.0190055
606	0.0255765
618	0.0395274
630	0.056511
642	0.0807733
654	0.115246
666	0.148708
678	0.198951
690	0.25061
702	0.301156
714	0.355443
726	0.394566
738	0.421962
750	0.469274
762	0.541757
774	0.535186
786	0.442787
798	0.387793
810	0.336842
822	0.254552
834	0.170847
846	0.138497
858	0.126164
870	0.107664
882	0.0894673
894	0.0747077
906	0.057623
918	0.0414481
930	0.0327541
942	0.0221394
954	0.0154672
966	0.0154672
978	0.0170847
990	0.0265875
1002	0.0407405
1014	0.0533771
1026	0.0757187
1038	0.110697
1050	0.152448
1062	0.212194
1074	0.244039
1086	0.1942
1098	0.137183
1110	0.146787
1122	0.223719
1134	0.368383
1146	0.425703
1158	0.28397
1170	0.139508
1182	0.0672268
1194	0.0421558
1206	0.0282049
1218	0.0186011
1230	0.0189044
1242	0.0298224
1254	0.0400328
1266	0.0429645
1278	0.0450875
1290	0.0557022
1302	0.0649017
1314	0.0678334
1326	0.105844
1338	0.160232
1350	0.178631
1362	0.170948
1374	0.188336
1386	0.194705
1398	0.119997
1410	0.0594427
1422	0.056511
1434	0.135566
1446	0.264358
1458	0.38011
1470	0.343918
1482	0.184495
1494	0.0692487
1506	0.0302268
1518	0.0175902
1530	0.0153661
1542	0.016276
1554	0.0168825
1566	0.0213306
1578	0.030429
1590	0.0480192
1602	0.0830984
1614	0.131926
1626	0.148708
1638	0.107462
1650	0.0549946
1662	0.0269918
1674	0.0146585
1686	0.00828963
1698	0.00475137
1710	0.00171858
1722	0.00161749
1734	0.0014153
1746	0
1758	0.00161749
1770	0.00181967
1782	0.00303279
1794	0.00414481
1806	0.00636886
1818	0.00818853
1830	0.0085929
1842	0.0104126
1854	0.0107159
1866	0.00950274
1878	0.00950274
1890	0.00839072
1902	0.00798635
1914	0.00758198
1926	0.0072787
1938	0.00707651
1950	0.0071776
1962	0.00768307
1974	0.00778416
1986	0.00808744
1998	0.00828963
2010	0.00778416
2022	0.00737979
2034	0.00677323
2046	0.00626777
2058	0.00586339
2070	0.00535793
2082	0.00515574
2094	0.00444809
2106	0.00404372
2118	0.00404372
2130	0.00384153
2142	0.004347
2154	0.00343716
2166	0.00272951
2178	0.00181967
2190	0.00111202
2202	0.000404372
2214	0
2226	0.000505465
2238	0.000808744
2250	0.0015164
2262	0.00202186
2274	0.00212295
2286	0.00121312
2298	0.000202186
2310	0.000505465
2322	0.00192077
2334	0.00272951
2346	0.00212295
2358	0.00313388
2370	0.00394263
2382	0.00232514
2394	0.00192077
2406	0.00222405
2418	0.00181967
2430	0.00212295
2442	0.00242623
2454	0.0029317
2466	0.00343716
2478	0.00424591
2490	0.00444809
2502	0.00525684
2514	0.00535793
2526	0.00626777
2538	0.0072787
2550	0.00960383
2562	0.0126366
2574	0.0164782
2586	0.0199153
2598	0.0229481
2610	0.0269918
2622	0.0322487
2634	0.0395274
2646	0.047817
2658	0.0566121
2670	0.066317
2682	0.0790547
2694	0.0905793
2706	0.0986668
2718	0.111202
2730	0.13132
2742	0.155178
2754	0.176306
2766	0.203702
2778	0.265976
2790	0.38941
2802	0.571479
2814	0.754255
2826	0.823706
2838	0.770228
2850	0.675301
2862	0.636886
2874	0.680356
2886	0.713312
2898	0.734542
2910	0.794086
2922	0.887597
2934	0.9897
2946	0.994856
2958	0.924495
2970	0.934504
2982	0.767801
2994	0.372224
3006	0.152246
3018	0.0744044
3030	0.0494345
3042	0.0387186
3054	0.0320465
3066	0.0254754
3078	0.019612
3090	0.015265
3102	0.0124344
3114	0.0114235
3126	0.0102104
3138	0.00970493
3150	0.00930056
3162	0.00899728
3174	0.0085929
3186	0.00899728
3198	0.00828963
3210	0.00768307
3222	0.00586339
3234	0.00404372
3246	0.00333607
3258	0.00242623
3270	0.00192077
3282	0.0014153
3294	0.00212295
3306	0.00303279
3318	0.0072787
3330	0.0194099
3342	0.0344727
3354	0.0327541
3366	0.0188033
3378	0.00970493
3390	0.011929
3402	0.016276
3414	0.0179946
3426	0.0137486
3438	0.00667214
3450	0.00404372
3462	0.00252732
3474	0.00242623
3486	0.00222405
3498	0.00212295
3510	0.00202186
3522	0.00202186
3534	0.0015164
3546	0.000909837
3558	0.00121312
3570	0.000909837
3582	0.000707651
3594	0.000101093
3606	0.000909837
3618	0.000808744
3630	0.00262842
3642	0.0015164
3654	0.000909837
3666	0.000909837
3678	0.000606558
3690	0.00101093
3702	0.00121312
3714	0.00111202
3726	0.00121312
3738	0.000707651
3750	0.0014153
3762	0.000606558
3774	0.000909837
3786	0
3798	0
3810	0.000202186
3822	0
3834	0.000101093
3846	0
3858	0.000101093
3870	0.00101093
3882	0.000202186
3894	0.000101093
3906	0.000303279
3918	0.00181967
3930	0.0014153
3942	0.0028306
3954	0.00303279
3966	0.00181967
