Infrared Spectrum: ACETAMIDE, 2-CYANO-
Formula: C3 H4 N2 O
CAS: 107-91-5
State: SOLID (SPLIT MULL)
Class: COBLENTZ III
Instrument: DOW KBr FOREPRISM-GRATING
Instrument parameters: BLAZED AT 3.5, 12.0, 20.0 MICRON AND CHANGED AT 5.0, 7.5, 14.9 MICRON
Sampling: TRANSMISSION
Resolution: 2
Origin: DOW CHEMICAL COMPANY
1/CM	TRANSMITTANCE
3796	0.8187
3787	0.8193
3778	0.8201
3769	0.8209
3760	0.8215
3751	0.8221
3742	0.8227
3733	0.8231
3724	0.8237
3715	0.8241
3706	0.8244
3697	0.8245
3688	0.8247
3679	0.8249
3670	0.8252
3661	0.8256
3652	0.8262
3643	0.8265
3634	0.8268
3625	0.8258
3616	0.8172
3607	0.8254
3598	0.8235
3589	0.7761
3580	0.8204
3571	0.8233
3562	0.8262
3553	0.8275
3544	0.8294
3535	0.8312
3526	0.8323
3517	0.8327
3508	0.8288
3499	0.8228
3490	0.8132
3481	0.7992
3472	0.7803
3463	0.7468
3454	0.7037
3445	0.6306
3436	0.3829
3427	0.3212
3418	0.2611
3409	0.2302
3400	0.2364
3391	0.2588
3382	0.2878
3373	0.3008
3364	0.3038
3355	0.349
3346	0.4059
3337	0.4239
3328	0.4388
3319	0.4444
3310	0.453
3301	0.4777
3292	0.4978
3283	0.4639
3274	0.4494
3265	0.4482
3256	0.4327
3247	0.4068
3238	0.378
3229	0.354
3220	0.3459
3211	0.3549
3202	0.3737
3193	0.4037
3184	0.4342
3175	0.4897
3166	0.54
3157	0.57
3148	0.5959
3139	0.6192
3130	0.6373
3121	0.6556
3112	0.6736
3103	0.6871
3094	0.7001
3085	0.7098
3076	0.7176
3067	0.724
3058	0.7301
3049	0.7354
3040	0.7408
3031	0.7465
3022	0.7522
3013	0.7582
3004	0.7626
2995	0.7669
2986	0.7661
2977	0.7196
2968	0.6725
2959	0.7284
2950	0.7524
2941	0.6953
2932	0.6662
2923	0.7271
2914	0.7511
2905	0.7692
2896	0.7765
2887	0.7822
2878	0.7882
2869	0.7938
2860	0.7987
2851	0.803
2842	0.8041
2833	0.8008
2824	0.798
2815	0.795
2806	0.7908
2797	0.7843
2788	0.7865
2779	0.7974
2770	0.8062
2761	0.8107
2752	0.8095
2743	0.8054
2734	0.8067
2725	0.8101
2716	0.8142
2707	0.8182
2698	0.8218
2689	0.825
2680	0.8282
2671	0.8313
2662	0.834
2653	0.8367
2644	0.8394
2635	0.8421
2626	0.8451
2617	0.8478
2608	0.8495
2599	0.851
2590	0.8524
2581	0.8521
2572	0.8518
2563	0.8512
2554	0.8503
2545	0.8495
2536	0.8468
2527	0.842
2518	0.846
2509	0.8483
2500	0.8492
2491	0.8498
2482	0.8478
2473	0.8462
2464	0.8445
2455	0.8461
2446	0.8481
2437	0.8492
2428	0.85
2419	0.8498
2410	0.8494
2401	0.8482
2392	0.8471
2383	0.8457
2374	0.8439
2365	0.846
2356	0.8518
2347	0.8488
2338	0.8406
2329	0.8389
2320	0.8395
2311	0.8402
2302	0.8408
2293	0.8348
2284	0.6755
2275	0.5899
2266	0.7301
2257	0.7768
2248	0.8251
2239	0.8325
2230	0.8388
2221	0.8448
2212	0.8492
2203	0.8498
2194	0.8492
2185	0.8484
2176	0.8475
2167	0.8467
2158	0.8466
2149	0.8466
2140	0.8466
2131	0.8466
2122	0.8471
2113	0.8475
2104	0.8482
2095	0.8487
2086	0.8493
2077	0.8499
2068	0.8505
2059	0.851
2050	0.8528
2041	0.8565
2032	0.8958
2023	0.8607
2014	0.86
2005	0.8595
1996	0.8807
1987	0.8852
1978	0.8877
1969	0.8912
1960	1.0331
1951	0.9062
1942	0.8928
1933	0.8936
1924	0.8937
1915	0.8936
1906	0.8942
1897	0.8947
1888	0.8953
1879	0.8958
1870	0.8958
1861	0.8952
1852	0.8938
1843	0.892
1834	0.8904
1825	0.8878
1816	0.884
1807	0.8803
1798	0.8763
1789	0.8721
1780	0.8666
1771	0.8605
1762	0.8536
1753	0.8451
1744	0.8305
1735	0.7989
1726	0.7564
1717	0.5396
1708	0.1809
1699	0.0821
1690	0.0473
1681	0.0423
1672	0.3055
1663	0.5634
1654	0.6333
1645	0.6357
1636	0.5468
1627	0.5112
1618	0.5915
1609	0.6643
1600	0.7248
1591	0.7575
1582	0.7835
1573	0.8034
1564	0.8137
1555	0.8207
1546	0.8268
1537	0.8325
1528	0.8358
1519	0.8375
1510	0.8392
1501	0.8378
1492	0.8378
1483	0.8377
1474	0.8364
1465	0.8309
1456	0.8233
1447	0.814
1438	0.7991
1429	0.7564
1420	0.4852
1411	0.2542
1402	0.5705
1393	0.4034
1384	0.2805
1375	0.4989
1366	0.6485
1357	0.685
1348	0.7146
1339	0.7285
1330	0.7265
1321	0.7347
1312	0.7476
1303	0.7557
1294	0.7347
1285	0.6676
1276	0.6207
1267	0.3282
1258	0.6644
1249	0.7189
1240	0.7426
1231	0.7596
1222	0.7733
1213	0.7719
1204	0.7621
1195	0.7871
1186	0.7928
1177	0.7975
1168	0.8031
1159	0.8101
1150	0.8203
1141	0.8321
1132	0.8455
1123	0.8486
1114	0.8588
1105	0.8667
1096	0.8696
1087	0.8715
1078	0.874
1069	0.8771
1060	0.8809
1051	0.8834
1042	0.8853
1033	0.8867
1024	0.8883
1015	0.8899
1006	0.8874
997	0.8833
988	0.879
979	0.8675
970	0.8621
961	0.8501
952	0.883
943	0.885
934	0.8493
925	0.8275
916	0.8825
907	0.8849
898	0.883
889	0.8838
880	0.8865
871	0.8753
862	0.761
853	0.766
844	0.7893
835	0.8628
826	0.8744
817	0.8723
808	0.8641
799	0.8531
790	0.8393
781	0.8348
772	0.8128
763	0.7821
754	0.7635
745	0.7768
736	0.7872
727	0.7787
718	0.7693
709	0.7814
700	0.7519
691	0.6905
682	0.6721
673	0.6373
664	0.5575
655	0.4818
646	0.4508
637	0.4572
628	0.5337
619	0.6234
610	0.6908
601	0.7222
592	0.7414
583	0.7719
574	0.8067
565	0.8381
556	0.856
547	0.8313
538	0.8058
529	0.8406
520	0.8823
511	0.901
502	0.9121
493	0.9189
484	0.895
475	0.8453
466	0.8921
457	0.9261
448	0.9258
439	0.9206
430	0.9153
421	0.9103
412	0.8661
403	0.823
394	0.8183
385	0.8142
