Infrared Spectrum: 2-Propanol, 1,3-dichloro-
Formula: C 3 H 6 Cl 2 O
CAS: 96-23-1
State: gas
Origin: Sadtler Research Labs Under US-EPA Contract
1/CM	ABSORBANCE
450	0.0228339
462	0.0296674
474	0.0517791
486	0.0296674
498	0.0269451
510	0.0150559
522	0.0113892
534	0.0262229
546	0.0766131
558	0.12867
570	0.114503
582	0.0578348
594	0.0241673
606	0.0262785
618	0.0241673
630	0.0222784
642	0.0260007
654	0.0236673
666	0.0205005
678	0.0337231
690	0.0635017
702	0.131003
714	0.17206
726	0.0958358
738	0.18306
750	0.315842
762	0.475235
774	0.55557
786	0.243951
798	0.0672795
810	0.0492791
822	0.0982248
834	0.145337
846	0.120503
858	0.0570015
870	0.0508347
882	0.0880023
894	0.0613905
906	0.018056
918	0.0183894
930	0.0247784
942	0.0380565
954	0.0810021
966	0.107058
978	0.0686685
990	0.0342787
1002	0.0426678
1014	0.0792798
1026	0.183116
1038	0.307675
1050	0.4269
1062	0.450012
1074	0.375676
1086	0.385121
1098	0.306397
1110	0.162171
1122	0.088669
1134	0.112892
1146	0.153782
1158	0.131392
1170	0.0951136
1182	0.0986137
1194	0.157171
1206	0.202839
1218	0.188727
1230	0.216283
1242	0.228617
1254	0.222672
1266	0.241784
1278	0.231506
1290	0.259118
1302	0.241617
1314	0.117392
1326	0.0616683
1338	0.0659462
1350	0.104503
1362	0.162949
1374	0.234506
1386	0.243895
1398	0.149948
1410	0.0770576
1422	0.103836
1434	0.248006
1446	0.29623
1458	0.147615
1470	0.0367787
1482	0.0179449
1494	0.0167227
1506	0.0173893
1518	0.0122781
1530	0.0100558
1542	0.0128892
1554	0.00661128
1566	0.00744464
1578	0.00838911
1590	0.00738908
1602	0.00577793
1614	0.00488902
1626	0.00683351
1638	0.00505569
1650	0.00838911
1662	0.00188894
1674	0.00627794
1686	0.00655573
1698	0.00700018
1710	0.00377788
1722	0.00483346
1734	0.00577793
1746	0.00311119
1758	0.00227784
1770	0.00677795
1782	0.00372232
1794	0.0055557
1806	0.00466679
1818	0.00350009
1830	0.00350009
1842	0.00205561
1854	0.00322231
1866	0.00311119
1878	0.00344453
1890	0.00411122
1902	0.00416678
1914	0.00388899
1926	0.00488902
1938	0.00466679
1950	0.00422233
1962	0.00405566
1974	0.00394455
1986	0.00377788
1998	0.00405566
2010	0.00444456
2022	0.00466679
2034	0.004389
2046	0.00433345
2058	0.00416678
2070	0.00250006
2082	0.00305563
2094	0.0055557
2106	0.00783354
2118	0.00861133
2130	0.00661128
2142	0.00566681
2154	0.00544459
2166	0.00483346
2178	0.00433345
2190	0.00411122
2202	0.00372232
2214	0.00388899
2226	0.00344453
2238	0.00383343
2250	0.00466679
2262	0.00566681
2274	0.00583348
2286	0.0036112
2298	0.00138892
2310	0.000500013
2322	0.00388899
2334	0.00583348
2346	0.00433345
2358	0.00455567
2370	0.00444456
2382	0.00255562
2394	0.00566681
2406	0.00566681
2418	0.00577793
2430	0.00483346
2442	0.00533347
2454	0.00583348
2466	0.00588904
2478	0.00600016
2490	0.00661128
2502	0.00561126
2514	0.00544459
2526	0.00422233
2538	0.00322231
2550	0.00300008
2562	0.00383343
2574	0.00355565
2586	0.00416678
2598	0.00450012
2610	0.0040001
2622	0.00466679
2634	0.00505569
2646	0.00572237
2658	0.00611127
2670	0.00588904
2682	0.00622238
2694	0.00833355
2706	0.00961136
2718	0.00894468
2730	0.00894468
2742	0.00772242
2754	0.00622238
2766	0.00655573
2778	0.00622238
2790	0.0051668
2802	0.00644461
2814	0.00655573
2826	0.00772242
2838	0.0108892
2850	0.0227228
2862	0.0406677
2874	0.056557
2886	0.0622794
2898	0.0743908
2910	0.0986137
2922	0.0986137
2934	0.0820577
2946	0.0681684
2958	0.150337
2970	0.264451
2982	0.210894
2994	0.0752242
3006	0.0478346
3018	0.0703907
3030	0.0467234
3042	0.0122781
3054	0.00494457
3066	0.00444456
3078	0.00450012
3090	0.00277785
3102	0.00355565
3114	0.00305563
3126	0.00300008
3138	0.00316675
3150	0.00322231
3162	0.00133337
3174	0.00261118
3186	0.00311119
3198	0.00288896
3210	0.0040001
3222	0.00244451
3234	0.0040001
3246	0.0051668
3258	0.00588904
3270	0.00316675
3282	0.00461123
3294	0.00600016
3306	0.00755575
3318	0.00627794
3330	0.00422233
3342	0.00450012
3354	0.00583348
3366	0.00705574
3378	0.00700018
3390	0.00588904
3402	0.00811132
3414	0.00766687
3426	0.00688907
3438	0.00450012
3450	0.00638905
3462	0.00338898
3474	0.00472234
3486	0.00227784
3498	0.00333342
3510	0.0036112
3522	0.00938913
3534	0.011667
3546	0.00822244
3558	0.00705574
3570	0.015556
3582	0.0935024
3594	0.197283
3606	0.198116
3618	0.276507
3630	0.216283
3642	0.105281
3654	0.0520569
3666	0.0275007
3678	0.0123892
3690	0.00733352
3702	0.00694462
3714	0.00461123
3726	0.00416678
3738	0.00500013
3750	0.00261118
3762	0.00216672
3774	0.0063335
3786	0.00133337
3798	0.00405566
3810	0.000444456
3822	0.00166671
3834	0.0036112
3846	0.00111114
3858	0.00433345
3870	0.00277785
3882	0.00200005
3894	0.00572237
3906	0.00188894
3918	0.00861133
3930	0.00655573
3942	0.00411122
3954	0.00844466
3966	0.00394455
