Infrared Spectrum: 2-THIAZOLIDINE THIONE
Formula: C3 H5 N S2
CAS: 96-53-7
State: SOLID (KBr PELLET)
Melting point: 104-105 C
Class: COBLENTZ
Instrument: Not specified, most likely a prism, grating, or hybrid spectrometer.
Sampling: TRANSMISSION
Resolution: 4
Origin: TENNESSEE EASTMAN COMPANY, RESEARCH LABORATORIES
MICROMETERS	TRANSMITTANCE
2.014	0.496
2.05497	0.51
2.09595	0.534
2.13692	0.551
2.17789	0.558
2.21887	0.571
2.25984	0.578
2.30082	0.598
2.34179	0.607
2.38276	0.622
2.42374	0.636
2.46471	0.643
2.50568	0.655
2.54666	0.67
2.58763	0.672
2.6286	0.68
2.66958	0.704
2.71055	0.713
2.75152	0.706
2.7925	0.689
2.83347	0.674
2.87445	0.658
2.91542	0.653
2.95639	0.662
2.99737	0.674
3.03834	0.626
3.07931	0.443
3.12029	0.3
3.16126	0.121
3.20223	0.032
3.24321	0.16
3.28418	0.382
3.32516	0.226
3.36613	0.382
3.4071	0.397
3.44808	0.506
3.48905	0.431
3.53002	0.655
3.571	0.72
3.61197	0.759
3.65294	0.759
3.69392	0.749
3.73489	0.815
3.77587	0.843
3.81684	0.856
3.85781	0.866
3.89879	0.877
3.93976	0.866
3.98073	0.883
4.02171	0.901
4.06268	0.916
4.10365	0.911
4.14463	0.906
4.1856	0.926
4.22657	0.93
4.26755	0.914
4.30852	0.914
4.3495	0.93
4.39047	0.941
4.43144	0.952
4.47242	0.953
4.51339	0.955
4.55436	0.955
4.59534	0.957
4.63631	0.957
4.67728	0.955
4.71826	0.953
4.75923	0.95
4.80021	0.948
4.84118	0.952
4.88215	0.953
4.92313	0.962
4.9641	0.97
5.00507	0.977
5.04605	0.977
5.08702	0.972
5.12799	0.972
5.16897	0.976
5.20994	0.981
5.25091	0.979
5.29189	0.972
5.33286	0.972
5.37384	0.974
5.41481	0.977
5.45578	0.981
5.49676	0.981
5.53773	0.976
5.5787	0.97
5.61968	0.972
5.66065	0.969
5.70162	0.952
5.7426	0.919
5.78357	0.906
5.82455	0.921
5.86552	0.926
5.90649	0.916
5.94747	0.909
5.98844	0.894
6.02941	0.878
6.07039	0.839
6.11136	0.853
6.15233	0.844
6.19331	0.86
6.23428	0.885
6.27526	0.883
6.31623	0.865
6.3572	0.839
6.39818	0.803
6.43915	0.755
6.48012	0.645
6.5211	0.242
6.56207	0.027
6.60304	0.068
6.64402	0.481
6.68499	0.655
6.72596	0.75
6.76694	0.759
6.80791	0.733
6.84889	0.551
6.88986	0.585
6.93083	0.655
6.97181	0.624
7.01278	0.752
7.05375	0.788
7.09473	0.788
7.1357	0.781
7.17667	0.788
7.21765	0.798
7.25862	0.808
7.2996	0.819
7.34057	0.817
7.38154	0.82
7.42252	0.761
7.46349	0.75
7.50446	0.738
7.54544	0.679
7.58641	0.587
7.62738	0.368
7.66836	0.121
7.70933	0.04
7.7503	0.153
7.79128	0.389
7.83225	0.517
7.87323	0.61
7.9142	0.619
7.95517	0.51
7.99615	0.45
8.03712	0.59
8.07809	0.687
8.11907	0.733
8.16004	0.749
8.20101	0.73
8.24199	0.668
8.28296	0.607
8.32394	0.675
8.36491	0.774
8.40588	0.82
8.44686	0.837
8.48783	0.844
8.5288	0.831
8.56978	0.766
8.61075	0.813
8.65172	0.851
8.6927	0.861
8.73367	0.863
8.77465	0.865
8.81562	0.861
8.85659	0.86
8.89757	0.858
8.93854	0.856
8.97951	0.851
9.02049	0.849
9.06146	0.848
9.10243	0.812
9.14341	0.672
9.18438	0.651
9.22535	0.764
9.26633	0.771
9.3073	0.723
9.34828	0.614
9.38925	0.423
9.43022	0.122
9.4712	0.027
9.51217	0.03
9.55314	0.116
9.59412	0.168
9.63509	0.274
9.67606	0.445
9.71704	0.508
9.75801	0.529
9.79899	0.517
9.83996	0.51
9.88093	0.479
9.92191	0.308
9.96288	0.172
10.0039	0.235
10.0448	0.419
10.0858	0.641
10.1268	0.744
10.1677	0.798
10.2087	0.822
10.2497	0.843
10.2907	0.866
10.3316	0.883
10.3726	0.897
10.4136	0.906
10.4546	0.911
10.4955	0.911
10.5365	0.911
10.5775	0.901
10.6185	0.836
10.6594	0.679
10.7004	0.24
10.7414	0.315
10.7824	0.576
10.8233	0.79
10.8643	0.86
10.9053	0.906
10.9462	0.924
10.9872	0.936
11.0282	0.943
11.0692	0.947
11.1101	0.95
11.1511	0.952
11.1921	0.953
11.2331	0.959
11.274	0.96
11.315	0.96
11.356	0.959
11.397	0.959
11.4379	0.957
11.4789	0.947
11.5199	0.914
11.5609	0.909
11.6018	0.895
11.6428	0.866
11.6838	0.839
11.7247	0.839
11.7657	0.844
11.8067	0.861
11.8477	0.889
11.8886	0.919
11.9296	0.93
11.9706	0.938
12.0116	0.947
12.0525	0.953
12.0935	0.959
12.1345	0.96
12.1755	0.964
12.2164	0.964
12.2574	0.964
12.2984	0.964
12.3393	0.962
12.3803	0.964
12.4213	0.964
12.4623	0.964
12.5032	0.96
12.5442	0.957
12.5852	0.955
12.6262	0.953
12.6671	0.95
12.7081	0.948
12.7491	0.947
12.7901	0.943
12.831	0.94
12.872	0.935
12.913	0.93
12.954	0.924
12.9949	0.921
13.0359	0.918
13.0769	0.912
13.1178	0.907
13.1588	0.899
13.1998	0.88
13.2408	0.866
13.2817	0.854
13.3227	0.844
13.3637	0.834
13.4047	0.82
13.4456	0.807
13.4866	0.796
13.5276	0.774
13.5686	0.754
13.6095	0.733
13.6505	0.711
13.6915	0.677
13.7325	0.651
13.7734	0.627
13.8144	0.593
13.8554	0.566
13.8963	0.532
13.9373	0.488
13.9783	0.459
14.0193	0.438
14.0602	0.428
14.1012	0.421
14.1422	0.412
14.1832	0.409
14.2241	0.411
14.2651	0.418
14.3061	0.424
14.3471	0.438
14.388	0.465
14.429	0.491
14.47	0.518
14.511	0.544
14.5519	0.58
14.5929	0.602
14.6339	0.629
14.6748	0.651
14.7158	0.668
14.7568	0.682
14.7978	0.692
14.8387	0.704
14.8797	0.709
14.9207	0.706
14.9617	0.697
15.0026	0.696
15.0436	0.689
15.0846	0.668
15.1256	0.617
15.1665	0.546
15.2075	0.412
15.2485	0.36
15.2894	0.341
15.3304	0.363
15.3714	0.424
15.4124	0.491
15.4533	0.518
15.4943	0.544
15.5353	0.564
15.5763	0.576
15.6172	0.588
15.6582	0.59
15.6992	0.595
15.7402	0.598
15.7811	0.598
15.8221	0.598
15.8631	0.598
15.9041	0.598
15.945	0.588
15.986	0.588
