Infrared Spectrum: Crotononitrile
Formula: C 4 H 5 N
CAS: 4786-20-3
State: gas
Instrument: HP-GC/MS/IRD
Origin: NIST Mass Spectrometry Data Center
1/CM	ABSORBANCE
550	0.0002598
562	0.0001128
574	0.000204
586	0.000114
598	0.0001632
610	0.0001698
622	7.08e-05
634	0.0001872
646	0.000291
658	0.0004104
670	0.0007134
682	0.001116
694	0.0021228
706	0.0029268
718	0.0053628
730	0.0042906
742	0.0029112
754	0.0018042
766	0.0010272
778	0.000675
790	0.000558
802	0.0004452
814	0.0002952
826	0.0001908
838	0.0003234
850	0.0003144
862	0.000291
874	0.000414
886	0.0004194
898	0.0004932
910	0.0004656
922	0.0005022
934	0.0009738
946	0.0014718
958	0.0014904
970	0.0011094
982	0.0005982
994	0.000402
1006	0.0003534
1018	0.0003342
1030	0.0003048
1042	0.0003336
1054	0.0002124
1066	0.0002514
1078	0.0001098
1090	0.0001212
1102	0.0001014
1114	0.000153
1126	0.0001326
1138	0.0001806
1150	8.7e-05
1162	5.7e-05
1174	5.28e-05
1186	6.24e-05
1198	1.32e-05
1210	7.92e-05
1222	8.88e-05
1234	9.54e-05
1246	0.0001284
1258	9.36e-05
1270	0.000123
1282	0.0001776
1294	0.0002334
1306	0.000306
1318	0.0003738
1330	0.0004362
1342	0.0005124
1354	0.0007302
1366	0.0007308
1378	0.0009666
1390	0.0009864
1402	0.0009408
1414	0.0011988
1426	0.0013878
1438	0.001575
1450	0.0015798
1462	0.0013428
1474	0.0009012
1486	0.0005778
1498	0.0004632
1510	0.0004374
1522	0.0004446
1534	0.0005088
1546	0.0005328
1558	0.0005436
1570	0.0005208
1582	0.0005088
1594	0.0005076
1606	0.000645
1618	0.0008112
1630	0.0007854
1642	0.0008586
1654	0.0006234
1666	0.0005742
1678	0.0004794
1690	0.000339
1702	0.0001878
1714	0.0001602
1726	0.0001602
1738	0.0001704
1750	0.0002388
1762	0.0002358
1774	0.000222
1786	0.0001848
1798	0.0001404
1810	9.78e-05
1822	0.0001086
1834	0.0001164
1846	0.000105
1858	0.0001158
1870	9e-05
1882	0.0001224
1894	0.000147
1906	0.0001416
1918	0.0001506
1930	0.000126
1942	0.0001182
1954	0.0001482
1966	0.0001608
1978	0.0002124
1990	0.0002136
2002	0.0002142
2014	0.0001308
2026	0.0001146
2038	0.0001182
2050	0.0001266
2062	0.0001098
2074	9.18e-05
2086	9.72e-05
2098	0.0001164
2110	0.000117
2122	0.0001152
2134	6.3e-05
2146	7.32e-05
2158	9.84e-05
2170	0.0001116
2182	9.36e-05
2194	0.0001674
2206	0.0003432
2218	0.0005088
2230	0.000537
2242	0.000456
2254	0.0001512
2266	0.0001332
2278	0.0001386
2290	0.0001086
2302	9.3e-05
2314	0.0001308
2326	0.0001272
2338	0.0001326
2350	0.000129
2362	0.0001068
2374	0.000114
2386	9.54e-05
2398	0.0001026
2410	9e-05
2422	8.1e-05
2434	8.82e-05
2446	0.000102
2458	0.0001452
2470	0.0001266
2482	0.0001104
2494	0.0001224
2506	0.0001296
2518	0.0001146
2530	9.72e-05
2542	9.96e-05
2554	8.1e-05
2566	0.0001176
2578	0.000102
2590	6.06e-05
2602	6.42e-05
2614	7.14e-05
2626	4.92e-05
2638	3.48e-05
2650	5.76e-05
2662	1.02e-05
2674	3.78e-05
2686	8.76e-05
2698	5.94e-05
2710	7.08e-05
2722	0.0001188
2734	0.0001458
2746	0.0001128
2758	0.0001638
2770	0.0001356
2782	0.0002202
2794	0.0001824
2806	0.000222
2818	0.000153
2830	0.0002352
2842	0.000381
2854	0.0005034
2866	0.0005754
2878	0.0006576
2890	0.00066
2902	0.0007122
2914	0.0010194
2926	0.0012384
2938	0.0014274
2950	0.0014196
2962	0.0012906
2974	0.0010014
2986	0.0009288
2998	0.0008166
3010	0.0007248
3022	0.0006834
3034	0.001119
3046	0.0013728
3058	0.0014646
3070	0.0014046
3082	0.0008688
3094	0.0005718
3106	0.000306
3118	0.0002736
3130	0.0002796
3142	0.0001056
3154	0.0001536
3166	0.0001428
3178	0.0001272
3190	0.000129
3202	0.0001452
3214	0.0001518
3226	0.0001062
3238	7.8e-05
3250	7.98e-05
3262	7.14e-05
3274	0.0001092
3286	0.0001194
3298	0.0001398
3310	0.0001428
3322	0.000111
3334	0.0001128
3346	0.0001578
3358	6.9e-05
3370	1.38e-05
3382	3.72e-05
3394	3e-05
3406	2.88e-05
3418	9.54e-05
3430	7.5e-05
3442	8.88e-05
3454	7.62e-05
3466	7.38e-05
3478	7.44e-05
3490	9.96e-05
3502	0.0001206
3514	0.0001332
3526	0.0001134
3538	3.12e-05
3550	7.5e-05
3562	6.78e-05
3574	7.92e-05
3586	0.0001062
3598	1.62e-05
3610	8.4e-05
3622	7.8e-05
3634	5.46e-05
3646	9.24e-05
3658	0.0001332
3670	0.0001776
3682	0.0001002
3694	0.0001398
3706	7.26e-05
3718	9.12e-05
3730	0.000105
3742	0.0001416
3754	0.0001002
3766	0.000162
3778	0.000141
3790	8.82e-05
3802	0.000135
3814	0.0001146
3826	0.0001128
3838	0.0001086
