Infrared Spectrum: Propane, 1,3-dibromo-
Formula: C 3 H 6 Br 2
CAS: 109-64-8
State: gas
Origin: Sadtler Research Labs Under US-EPA Contract
1/CM	ABSORBANCE
450	0.247221
462	0.0580902
474	0.0183127
486	0.0574898
498	0.0291202
510	0.023116
522	0.0315218
534	0.0255177
546	0.0770034
558	0.228758
570	0.160011
582	0.122485
594	0.126688
606	0.117081
618	0.0355746
630	0.0361751
642	0.0747518
654	0.167816
666	0.105823
678	0.0384266
690	0.0286699
702	0.024467
714	0.0334732
726	0.0433801
738	0.0526865
750	0.0574898
762	0.150404
774	0.415338
786	0.137195
798	0.0466823
810	0.0511855
822	0.0652952
834	0.111978
846	0.099519
858	0.0872104
870	0.0436803
882	0.0283697
894	0.0379763
906	0.0423293
918	0.0333231
930	0.0737011
942	0.15911
954	0.0887115
966	0.031822
978	0.0228158
990	0.021615
1002	0.0237164
1014	0.023116
1026	0.0258179
1038	0.031822
1050	0.054788
1062	0.0628936
1074	0.0640944
1086	0.0339235
1098	0.0262682
1110	0.0348241
1122	0.0268686
1134	0.0237164
1146	0.0219152
1158	0.0261181
1170	0.0339235
1182	0.031822
1194	0.0789547
1206	0.0703988
1218	0.104172
1230	0.586456
1242	1.50104
1254	0.640494
1266	0.178173
1278	0.149053
1290	0.300508
1302	0.266585
1314	0.131341
1326	0.0824071
1338	0.0806058
1350	0.120233
1362	0.0797052
1374	0.0252175
1386	0.0204141
1398	0.023116
1410	0.0510354
1422	0.147102
1434	0.323774
1446	0.353345
1458	0.124887
1470	0.0504349
1482	0.0246171
1494	0.0184628
1506	0.0166615
1518	0.0136595
1530	0.013059
1542	0.0163613
1554	0.0105073
1566	0.00975676
1578	0.00945655
1590	0.00840582
1602	0.00825572
1614	0.00930645
1626	0.00930645
1638	0.00945655
1650	0.00840582
1662	0.00810562
1674	0.00825572
1686	0.010057
1698	0.00900624
1710	0.00810562
1722	0.00885614
1734	0.00960666
1746	0.00945655
1758	0.00795551
1770	0.00855593
1782	0.00855593
1794	0.00840582
1806	0.00780541
1818	0.0073551
1830	0.00690478
1842	0.00570395
1854	0.00570395
1866	0.00600416
1878	0.00585406
1890	0.00795551
1902	0.00825572
1914	0.0073551
1926	0.00555385
1938	0.00525364
1950	0.00495343
1962	0.00480333
1974	0.00570395
1986	0.00615426
1998	0.00690478
2010	0.0075052
2022	0.0075052
2034	0.00630437
2046	0.00555385
2058	0.00555385
2070	0.00510354
2082	0.00585406
2094	0.00495343
2106	0.00405281
2118	0.00330229
2130	0.00315218
2142	0.00315218
2154	0.0039027
2166	0.00540374
2178	0.00825572
2190	0.00960666
2202	0.0103572
2214	0.00930645
2226	0.0073551
2238	0.00585406
2250	0.00555385
2262	0.00525364
2274	0.00540374
2286	0.00645447
2298	0.00495343
2310	0.00300208
2322	0.00300208
2334	0.00330229
2346	0.00405281
2358	0.00465322
2370	0.00525364
2382	0.00570395
2394	0.00585406
2406	0.00450312
2418	0.0039027
2430	0.0036025
2442	0.00300208
2454	0.00225156
2466	0.00225156
2478	0.00405281
2490	0.00480333
2502	0.00300208
2514	0.00135094
2526	0.000150104
2538	0.00105073
2550	0.00135094
2562	0.00180125
2574	0.00240166
2586	0.00150104
2598	0.00195135
2610	0.00195135
2622	0.00225156
2634	0.00270187
2646	0.00285198
2658	0.00165114
2670	0.00480333
2682	0.0136595
2694	0.0126087
2706	0.0039027
2718	0.00120083
2730	0.00225156
2742	0.00420291
2754	0.00270187
2766	0.00255177
2778	0.00435302
2790	0.00450312
2802	0.00405281
2814	0.0073551
2826	0.0204141
2838	0.0309214
2850	0.041879
2862	0.0603418
2874	0.0660458
2886	0.0469826
2898	0.0588408
2910	0.118132
2922	0.165114
2934	0.179074
2946	0.11528
2958	0.14365
2970	0.291652
2982	0.356947
2994	0.212397
3006	0.108375
3018	0.110627
3030	0.0944154
3042	0.0367755
3054	0.0108075
3066	0.00555385
3078	0.00495343
3090	0.00345239
3102	0.00270187
3114	0.00450312
3126	0.00315218
3138	0.00255177
3150	0.00255177
3162	0.00270187
3174	0.00285198
3186	0.00345239
3198	0.00495343
3210	0.00315218
3222	0.00240166
3234	0.0039027
3246	0.00495343
3258	0.00345239
3270	0.00135094
3282	0.00135094
3294	0.00255177
3306	0.00405281
3318	0.00195135
3330	0.00165114
3342	0.00255177
3354	0.000900624
3366	0.00105073
3378	0.00105073
3390	0.00195135
3402	0.00255177
3414	0
3426	0.00180125
3438	0.00195135
3450	0.00195135
3462	0.00225156
3474	0.00150104
3486	0.00240166
3498	0.00240166
3510	0.00150104
3522	0.00315218
3534	0.0037526
3546	0.00465322
3558	0.00315218
3570	0.00270187
3582	0.00420291
3594	0.00525364
3606	0.00495343
3618	0.00270187
3630	0.00420291
3642	0.00480333
3654	0.00510354
3666	0.00450312
3678	0.00540374
3690	0.00450312
3702	0.00300208
3714	0.00315218
3726	0.00450312
3738	0.00555385
3750	0.0037526
3762	0.00330229
3774	0.00675468
3786	0.00570395
3798	0.00540374
3810	0.00240166
3822	0.0036025
3834	0.00645447
3846	0.00555385
3858	0.00645447
3870	0.00495343
3882	0.0076553
3894	0.00585406
3906	0.00465322
3918	0.00510354
3930	0.0075052
3942	0.00345239
3954	0.00810562
3966	0.00720499
