Infrared Spectrum: 1,1-DICHLORO-1-FLUORO PROPANE
Formula: C3 H5 Cl2 F
CAS: 7799-56-6
State: SOLUTION (10% CCl4 FOR 5000-1330, 10% CS2 FOR 1330-625 CM^-^1)
Class: COBLENTZ
Instrument: Not specified, most likely a prism, grating, or hybrid spectrometer.
Sampling: TRANSMISSION
Path length: 0.0110 CM, 0.0111 CM
Resolution: 4
Origin: DOW CHEMICAL COMPANY
MICROMETERS	TRANSMITTANCE
2.048	0.902
2.08916	0.903
2.13031	0.903
2.17147	0.903
2.21263	0.898
2.25378	0.891
2.29494	0.897
2.3361	0.905
2.37725	0.909
2.41841	0.902
2.45956	0.907
2.50072	0.91
2.54188	0.914
2.58303	0.919
2.62419	0.927
2.66535	0.926
2.7065	0.926
2.74766	0.924
2.78882	0.926
2.82997	0.924
2.87113	0.917
2.91229	0.891
2.95344	0.891
2.9946	0.897
3.03575	0.903
3.07691	0.902
3.11807	0.905
3.15922	0.91
3.20038	0.907
3.24154	0.907
3.28269	0.879
3.32385	0.619
3.36501	0.696
3.40616	0.802
3.44732	0.833
3.48848	0.898
3.52963	0.919
3.57079	0.926
3.61194	0.926
3.6531	0.927
3.69426	0.931
3.73541	0.936
3.77657	0.934
3.81773	0.934
3.85888	0.934
3.90004	0.934
3.9412	0.938
3.98235	0.939
4.02351	0.938
4.06467	0.933
4.10582	0.939
4.14698	0.945
4.18813	0.948
4.22929	0.948
4.27045	0.948
4.3116	0.934
4.35276	0.927
4.39392	0.927
4.43507	0.931
4.47623	0.938
4.51739	0.945
4.55854	0.946
4.5997	0.948
4.64086	0.948
4.68201	0.948
4.72317	0.948
4.76432	0.945
4.80548	0.943
4.84664	0.938
4.88779	0.934
4.92895	0.934
4.97011	0.934
5.01126	0.934
5.05242	0.939
5.09358	0.939
5.13473	0.936
5.17589	0.936
5.21705	0.938
5.2582	0.936
5.29936	0.938
5.34051	0.938
5.38167	0.934
5.42283	0.933
5.46398	0.933
5.50514	0.934
5.5463	0.936
5.58745	0.936
5.62861	0.936
5.66977	0.929
5.71092	0.927
5.75208	0.926
5.79324	0.922
5.83439	0.922
5.87555	0.926
5.9167	0.927
5.95786	0.926
5.99902	0.921
6.04017	0.915
6.08133	0.89
6.12249	0.873
6.16364	0.869
6.2048	0.823
6.24596	0.734
6.28711	0.663
6.32827	0.643
6.36943	0.6
6.41058	0.521
6.45174	0.509
6.4929	0.586
6.53405	0.653
6.57521	0.691
6.61636	0.756
6.65752	0.801
6.69868	0.821
6.73983	0.821
6.78099	0.598
6.82215	0.48
6.8633	0.696
6.90446	0.766
6.94562	0.73
6.98677	0.783
7.02793	0.866
7.06909	0.879
7.11024	0.879
7.1514	0.847
7.19255	0.739
7.23371	0.806
7.27487	0.879
7.31602	0.883
7.35718	0.874
7.39834	0.802
7.43949	0.67
7.48065	0.771
7.52181	0.818
7.56296	0.847
7.60412	0.855
7.64528	0.859
7.68643	0.859
7.72759	0.818
7.76874	0.698
7.8099	0.519
7.85106	0.492
7.89221	0.641
7.93337	0.782
7.97453	0.83
8.01568	0.85
8.05684	0.862
8.098	0.871
8.13915	0.873
8.18031	0.871
8.22147	0.869
8.26262	0.866
8.30378	0.862
8.34493	0.859
8.38609	0.861
8.42725	0.861
8.4684	0.847
8.50956	0.813
8.55072	0.758
8.59187	0.658
8.63303	0.313
8.67419	0.154
8.71534	0.269
8.7565	0.44
8.79766	0.473
8.83881	0.361
8.87997	0.267
8.92112	0.214
8.96228	0.2
9.00344	0.248
9.04459	0.313
9.08575	0.286
9.12691	0.25
9.16806	0.459
9.20922	0.631
9.25038	0.614
9.29153	0.391
9.33269	0.375
9.37385	0.643
9.415	0.723
9.45616	0.753
9.49731	0.763
9.53847	0.751
9.57963	0.655
9.62078	0.42
9.66194	0.149
9.7031	0.221
9.74425	0.469
9.78541	0.639
9.82657	0.715
9.86772	0.768
9.90888	0.78
9.95004	0.773
9.99119	0.737
10.0323	0.692
10.0735	0.617
10.1147	0.514
10.1558	0.361
10.197	0.224
10.2381	0.137
10.2793	0.204
10.3204	0.415
10.3616	0.562
10.4028	0.641
10.4439	0.67
10.4851	0.675
10.5262	0.65
10.5674	0.586
10.6085	0.504
10.6497	0.406
10.6909	0.291
10.732	0.162
10.7732	0.063
10.8143	0.029
10.8555	0.061
10.8966	0.164
10.9378	0.319
10.9789	0.478
11.0201	0.581
11.0613	0.653
11.1024	0.696
11.1436	0.716
11.1847	0.72
11.2259	0.711
11.267	0.692
11.3082	0.677
11.3494	0.662
11.3905	0.639
11.4317	0.593
11.4728	0.562
11.514	0.562
11.5551	0.566
11.5963	0.55
11.6374	0.516
11.6786	0.473
11.7198	0.411
11.7609	0.315
11.8021	0.18
11.8432	0.089
11.8844	0.042
11.9255	0.025
11.9667	0.034
12.0079	0.084
12.049	0.102
12.0902	0.073
12.1313	0.034
12.1725	0.034
12.2136	0.085
12.2548	0.181
12.296	0.298
12.3371	0.409
12.3783	0.492
12.4194	0.548
12.4606	0.588
12.5017	0.617
12.5429	0.643
12.584	0.651
12.6252	0.646
12.6664	0.612
12.7075	0.547
12.7487	0.468
12.7898	0.372
12.831	0.259
12.8721	0.228
12.9133	0.238
12.9545	0.276
12.9956	0.332
13.0368	0.411
13.0779	0.506
13.1191	0.578
13.1602	0.641
13.2014	0.689
13.2426	0.718
13.2837	0.737
13.3249	0.747
13.366	0.754
13.4072	0.756
13.4483	0.751
13.4895	0.734
13.5306	0.716
13.5718	0.694
13.613	0.655
13.6541	0.615
13.6953	0.554
13.7364	0.481
13.7776	0.358
13.8187	0.209
13.8599	0.137
13.9011	0.108
13.9422	0.135
13.9834	0.205
14.0245	0.305
14.0657	0.399
14.1068	0.468
14.148	0.519
14.1891	0.554
14.2303	0.584
14.2715	0.602
14.3126	0.62
14.3538	0.632
14.3949	0.639
14.4361	0.646
14.4772	0.648
14.5184	0.648
14.5596	0.648
14.6007	0.646
14.6419	0.641
14.683	0.632
14.7242	0.627
14.7653	0.619
14.8065	0.614
14.8477	0.608
14.8888	0.605
14.93	0.605
14.9711	0.6
15.0123	0.59
15.0534	0.576
15.0946	0.567
15.1357	0.56
15.1769	0.55
15.2181	0.543
15.2592	0.533
15.3004	0.528
15.3415	0.524
15.3827	0.521
15.4238	0.519
15.465	0.516
15.5062	0.512
15.5473	0.511
15.5885	0.507
15.6296	0.507
15.6708	0.506
15.7119	0.506
15.7531	0.504
15.7942	0.504
15.8354	0.504
15.8766	0.504
