Infrared Spectrum: BROMOCHLOROMETHANE
Formula: C H2 Br Cl
CAS: 74-97-5
State: LIQUID
Class: COBLENTZ
Instrument: Not specified, most likely a prism, grating, or hybrid spectrometer.
Sampling: TRANSMISSION
Path length: 0.005 CM
Resolution: 4
Origin: WYANDOTTE CHEMICALS CORP., WYANDOTTE, MICHIGAN, USA
MICROMETERS	TRANSMITTANCE
2.048	0.994
2.08887	0.998
2.12975	1
2.17062	0.977
2.21149	0.873
2.25237	1
2.29324	0.986
2.33411	0.899
2.37499	0.955
2.41586	1
2.45674	1.001
2.49761	0.996
2.53848	0.96
2.57936	0.976
2.62023	0.989
2.6611	0.991
2.70198	0.986
2.74285	0.981
2.78372	0.984
2.8246	0.979
2.86547	0.974
2.90634	0.97
2.94722	0.96
2.98809	0.953
3.02897	0.948
3.06984	0.943
3.11071	0.936
3.15159	0.923
3.19246	0.902
3.23333	0.834
3.27421	0.511
3.31508	0.621
3.35595	0.726
3.39683	0.749
3.4377	0.761
3.47857	0.849
3.51945	0.87
3.56032	0.875
3.6012	0.919
3.64207	0.928
3.68294	0.94
3.72382	0.94
3.76469	0.943
3.80556	0.938
3.84644	0.904
3.88731	0.959
3.92818	0.964
3.96906	0.962
4.00993	0.959
4.0508	0.96
4.09168	0.953
4.13255	0.931
4.17343	0.895
4.2143	0.95
4.25517	0.959
4.29605	0.969
4.33692	0.955
4.37779	0.948
4.41867	0.952
4.45954	0.959
4.50041	0.941
4.54129	0.771
4.58216	0.88
4.62303	0.965
4.66391	0.979
4.70478	0.982
4.74566	0.984
4.78653	0.979
4.8274	0.988
4.86828	0.988
4.90915	0.988
4.95002	0.991
4.9909	0.988
5.03177	0.988
5.07264	0.979
5.11352	0.981
5.15439	0.986
5.19526	0.988
5.23614	0.988
5.27701	0.991
5.31789	0.989
5.35876	0.991
5.39963	0.989
5.44051	0.988
5.48138	0.988
5.52225	0.988
5.56313	0.988
5.604	0.991
5.64487	0.986
5.68575	0.989
5.72662	0.972
5.76749	0.96
5.80837	0.926
5.84924	0.75
5.89012	0.872
5.93099	0.93
5.97186	0.93
6.01274	0.919
6.05361	0.919
6.09448	0.909
6.13536	0.912
6.17623	0.916
6.2171	0.902
6.25798	0.926
6.29885	0.936
6.33972	0.938
6.3806	0.943
6.42147	0.938
6.46235	0.941
6.50322	0.933
6.54409	0.941
6.58497	0.93
6.62584	0.928
6.66671	0.924
6.70759	0.906
6.74846	0.889
6.78933	0.784
6.83021	0.699
6.87108	0.605
6.91195	0.67
6.95283	0.72
6.9937	0.74
7.03458	0.75
7.07545	0.643
7.11632	0.602
7.1572	0.728
7.19807	0.798
7.23894	0.824
7.27982	0.829
7.32069	0.817
7.36156	0.807
7.40244	0.837
7.44331	0.861
7.48418	0.832
7.52506	0.86
7.56593	0.873
7.60681	0.883
7.64768	0.889
7.68855	0.878
7.72943	0.865
7.7703	0.854
7.81117	0.829
7.85205	0.8
7.89292	0.742
7.93379	0.667
7.97467	0.542
8.01554	0.452
8.05641	0.274
8.09729	0.042
8.13816	0.023
8.17904	0.023
8.21991	0.114
8.26078	0.341
8.30166	0.496
8.34253	0.59
8.3834	0.569
8.42428	0.651
8.46515	0.72
8.50602	0.754
8.5469	0.771
8.58777	0.786
8.62864	0.793
8.66952	0.8
8.71039	0.79
8.75127	0.776
8.79214	0.766
8.83301	0.749
8.87389	0.747
8.91476	0.75
8.95563	0.759
8.99651	0.773
9.03738	0.773
9.07825	0.781
9.11913	0.79
9.16	0.79
9.20087	0.793
9.24175	0.817
9.28262	0.825
9.3235	0.834
9.36437	0.843
9.40524	0.851
9.44612	0.854
9.48699	0.86
9.52786	0.858
9.56874	0.851
9.60961	0.846
9.65048	0.849
9.69136	0.849
9.73223	0.843
9.7731	0.843
9.81398	0.844
9.85485	0.856
9.89573	0.849
9.9366	0.87
9.97747	0.878
10.0183	0.887
10.0592	0.861
10.1001	0.802
10.141	0.832
10.1818	0.872
10.2227	0.899
10.2636	0.901
10.3045	0.901
10.3453	0.901
10.3862	0.899
10.4271	0.895
10.468	0.894
10.5088	0.892
10.5497	0.892
10.5906	0.89
10.6314	0.897
10.6723	0.897
10.7132	0.895
10.7541	0.894
10.7949	0.892
10.8358	0.894
10.8767	0.889
10.9176	0.887
10.9584	0.885
10.9993	0.883
11.0402	0.882
11.0811	0.878
11.1219	0.878
11.1628	0.878
11.2037	0.872
11.2446	0.86
11.2854	0.812
11.3263	0.812
11.3672	0.843
11.408	0.854
11.4489	0.839
11.4898	0.825
11.5307	0.798
11.5715	0.762
11.6124	0.726
11.6533	0.656
11.6942	0.513
11.735	0.331
11.7759	0.18
11.8168	0.262
11.8577	0.452
11.8985	0.61
11.9394	0.708
11.9803	0.757
12.0212	0.803
12.062	0.822
12.1029	0.843
12.1438	0.851
12.1846	0.856
12.2255	0.87
12.2664	0.87
12.3073	0.868
12.3481	0.831
12.389	0.803
12.4299	0.839
12.4708	0.851
12.5116	0.848
12.5525	0.849
12.5934	0.834
12.6343	0.812
12.6751	0.796
12.716	0.771
12.7569	0.761
12.7977	0.744
12.8386	0.728
12.8795	0.703
12.9204	0.672
12.9612	0.638
13.0021	0.597
13.043	0.547
13.0839	0.5
13.1247	0.452
13.1656	0.397
13.2065	0.339
13.2474	0.279
13.2882	0.213
13.3291	0.151
13.37	0.1
13.4109	0.064
13.4517	0.052
13.4926	0.049
13.5335	0.049
13.5743	0.047
13.6152	0.047
13.6561	0.049
13.697	0.052
13.7378	0.052
13.7787	0.054
13.8196	0.054
13.8605	0.059
13.9013	0.063
13.9422	0.066
13.9831	0.066
14.024	0.073
14.0648	0.078
14.1057	0.1
14.1466	0.131
14.1875	0.174
14.2283	0.228
14.2692	0.279
14.3101	0.336
14.3509	0.387
14.3918	0.433
14.4327	0.477
14.4736	0.518
14.5144	0.542
14.5553	0.554
14.5962	0.563
14.6371	0.563
14.6779	0.566
14.7188	0.581
14.7597	0.607
14.8006	0.645
14.8414	0.675
14.8823	0.699
14.9232	0.721
14.964	0.726
15.0049	0.738
15.0458	0.738
15.0867	0.759
15.1275	0.767
15.1684	0.762
15.2093	0.766
15.2502	0.761
15.291	0.755
15.3319	0.759
15.3728	0.759
15.4137	0.764
15.4545	0.761
15.4954	0.755
15.5363	0.754
15.5772	0.752
15.618	0.744
15.6589	0.738
15.6998	0.735
15.7406	0.732
15.7815	0.733
15.8224	0.733
15.8633	0.737
15.9041	0.737
15.945	0.733
15.9859	0.725
