Infrared Spectrum: Methane, bromochloro-
Formula: C H 2 Br Cl
CAS: 74-97-5
State: gas
Origin: Sadtler Research Labs Under US-EPA Contract
1/CM	ABSORBANCE
450	0.0226847
462	0.0229354
474	0.0195515
486	0.0214314
498	0.0233114
510	0.0211808
522	0.02657
534	0.013661
546	0.0195515
558	0.0275726
570	0.0287006
582	0.0546439
594	0.183232
606	0.398048
618	0.461841
630	0.0362204
642	0.0370977
654	0.0339644
666	0.011029
678	0.0147889
690	0.0187995
702	0.0325858
714	0.161801
726	0.725661
738	1.2533
750	1.19151
762	0.0927442
774	0.0104024
786	0.00726914
798	0.00714381
810	0.00363457
822	0.0100264
834	0.0144129
846	0.0199275
858	0.0176715
870	0.0189248
882	0.0134103
894	0.00965041
906	0.00563985
918	0.00363457
930	0.00213061
942	0.00238127
954	0.00238127
966	0.00175462
978	0.00137863
990	0.00062665
1002	0.00150396
1014	0.00100264
1026	0.00100264
1038	0.00087731
1050	0.00137863
1062	0.00187995
1074	0.00300792
1086	0.00175462
1098	0.00187995
1110	0.00175462
1122	0.00187995
1134	0.00200528
1146	0.00175462
1158	0.00288259
1170	0.00363457
1182	0.0115304
1194	0.0203035
1206	0.0525133
1218	0.496056
1230	0.593814
1242	0.611234
1254	0.0116557
1266	0.00187995
1278	0.00238127
1290	0.00213061
1302	0.00162929
1314	0.00213061
1326	0.00300792
1338	0.00426122
1350	0.00777046
1362	0.0109037
1374	0.0115304
1386	0.0112797
1398	0.0145383
1410	0.00939975
1422	0.00664249
1434	0.00726914
1446	0.0107784
1458	0.013285
1470	0.0162929
1482	0.0137863
1494	0.00864777
1506	0.00601584
1518	0.00701848
1530	0.00839711
1542	0.0147889
1554	0.0253167
1566	0.0373483
1578	0.0370977
1590	0.0392283
1602	0.0318338
1614	0.0135356
1626	0.00363457
1638	0.00187995
1650	0.0012533
1662	0.00075198
1674	0.0012533
1686	0.00137863
1698	0.00150396
1710	0.00137863
1722	0.00087731
1734	0.00137863
1746	0.00087731
1758	0.00100264
1770	0.0012533
1782	0.00112797
1794	0.00062665
1806	0.00075198
1818	0.00075198
1830	0.0012533
1842	0.00100264
1854	0.00075198
1866	0.00062665
1878	0.00037599
1890	0.00037599
1902	0.00050132
1914	0.00075198
1926	0.00075198
1938	0.00062665
1950	0.00112797
1962	0.00100264
1974	0.00263193
1986	0.00275726
1998	0.00238127
2010	0.00150396
2022	0.00162929
2034	0.00150396
2046	0.00150396
2058	0.00150396
2070	0.0012533
2082	0.00137863
2094	0.00100264
2106	0.0012533
2118	0.00137863
2130	0.0012533
2142	0.0012533
2154	0.00187995
2166	0.00238127
2178	0.00150396
2190	0.00200528
2202	0.00200528
2214	0.00275726
2226	0.00451188
2238	0.00563985
2250	0.00639183
2262	0.00889843
2274	0.00639183
2286	0.00513853
2298	0.00488787
2310	0.00388523
2322	0.00338391
2334	0.00401056
2346	0.00313325
2358	0.00338391
2370	0.00187995
2382	0.00325858
2394	0.00213061
2406	0.0012533
2418	0.00150396
2430	0.00263193
2442	0.0037599
2454	0.00313325
2466	0.00325858
2478	0.00200528
2490	0.00150396
2502	0.00062665
2514	0.00050132
2526	0.00100264
2538	0.00112797
2550	0.00062665
2562	0.00075198
2574	0.00112797
2586	0.00037599
2598	0.00175462
2610	0.00200528
2622	0.00275726
2634	0.00576518
2646	0.00789579
2658	0.0075198
2670	0.00238127
2682	0.00175462
2694	0.00225594
2706	0.00288259
2718	0.00187995
2730	0.00225594
2742	0.00238127
2754	0.00275726
2766	0.00313325
2778	0.00275726
2790	0.00225594
2802	0.00300792
2814	0.00325858
2826	0.00288259
2838	0.00350924
2850	0.00338391
2862	0.00300792
2874	0.00213061
2886	0.00313325
2898	0.00363457
2910	0.00175462
2922	0.0037599
2934	0.00538919
2946	0.00726914
2958	0.011405
2970	0.0184235
2982	0.0270713
2994	0.0392283
3006	0.0290766
3018	0.0374737
3030	0.0244393
3042	0.0161676
3054	0.00852244
3066	0.00676782
3078	0.00513853
3090	0.00438655
3102	0.00350924
3114	0.00300792
3126	0.00388523
3138	0.00100264
3150	0.0012533
3162	0.00263193
3174	0.0037599
3186	0.00100264
3198	0.00112797
3210	0.0012533
3222	0.0012533
3234	0.00225594
3246	0.00288259
3258	0.00137863
3270	0.00175462
3282	0
3294	0.0037599
3306	0.00275726
3318	0.00363457
3330	0.00313325
3342	0.00162929
3354	0.00338391
3366	0.00187995
3378	0.00238127
3390	0.00300792
3402	0.00438655
3414	0.00338391
3426	0.00238127
3438	0.00363457
3450	0.00313325
3462	0.00313325
3474	0.00175462
3486	0.00275726
3498	0.00325858
3510	0.00325858
3522	0.00087731
3534	0.00150396
3546	0.00263193
3558	0.00213061
3570	0.00225594
3582	0.00401056
3594	0.00162929
3606	0.00325858
3618	0.00438655
3630	0.00225594
3642	0.00263193
3654	0.00200528
3666	0.00150396
3678	0.00225594
3690	0.00300792
3702	0.00388523
3714	0.00062665
3726	0.00087731
3738	0.00476254
3750	0.00012533
3762	0.0012533
3774	0.00137863
3786	0.0012533
3798	0.00338391
3810	0.00513853
3822	0.00263193
3834	0.00300792
3846	0.00338391
3858	0.00476254
3870	0.00288259
3882	0.00689315
3894	0.00576518
3906	0.00338391
3918	0.00426122
3930	0.00388523
3942	0.0075198
3954	0.00213061
3966	0.0050132
