Infrared Spectrum: METHANE, BROMOCHLORO-
Formula: C H2 Br Cl
CAS: 74-97-5
State: SOLUTION (10% IN CCl4 FOR 3800-1333, AND 10% IN CS2 FOR 1333-430 CM^-^1)
Class: COBLENTZ III
Instrument: DOW KBr FOREPRISM-GRATING
Instrument parameters: BLAZED AT 3.5, 12.0, 20.0 MICRON, CHANGED AT 5.0, 7.5, 14.9 MICRON
Sampling: TRANSMISSION
Path length: 0.011, 0.011 CM
Resolution: 4
Origin: DOW CHEMICAL COMPANY
1/CM	TRANSMITTANCE
416.513	0.927
425.204	0.929
433.895	0.929
442.586	0.934
451.277	0.945
459.968	0.953
468.659	0.961
477.349	0.982
486.04	0.991
494.731	1.009
503.422	1.013
512.113	1.025
520.804	1.031
529.495	1.034
538.186	1.029
546.877	1.032
555.568	1.027
564.259	1.014
572.95	1.004
581.641	0.982
590.331	0.895
599.022	0.5809
607.713	0.138
616.404	0.839
625.095	0.968
633.786	0.985
642.477	0.978
651.168	0.959
659.859	0.979
668.55	0.987
677.241	0.982
685.932	0.975
694.623	0.957
703.314	0.908
712.004	0.784
720.695	0.449
729.386	0.035
738.077	0.0211
746.768	0.664
755.459	0.888
764.15	0.95
772.841	0.979
781.532	0.986
790.223	0.993
798.914	0.994
807.605	0.994
816.296	1
824.986	0.989
833.677	0.97
842.368	0.885
851.059	0.707
859.75	0.784
868.441	0.844
877.132	0.896
885.823	0.949
894.514	0.991
903.205	1.009
911.896	1.017
920.587	1.02
929.278	1.023
937.968	1.025
946.659	1.023
955.35	1.02
964.041	1.02
972.732	1.021
981.423	1.024
990.114	1.025
998.805	1.025
1007.5	1.02
1016.19	1.019
1024.88	1.02
1033.57	1.017
1042.26	1.019
1050.95	1.019
1059.64	1.017
1068.33	1.017
1077.02	1.012
1085.71	1.014
1094.41	1.012
1103.1	1.013
1111.79	1.01
1120.48	1.006
1129.17	0.994
1137.86	0.998
1146.55	1.006
1155.24	1.012
1163.93	1.01
1172.62	1.004
1181.31	0.985
1190.01	0.986
1198.7	0.968
1207.39	0.912
1216.08	0.705
1224.77	0.029
1233.46	0.67
1242.15	0.904
1250.84	0.956
1259.53	0.979
1268.22	0.989
1276.91	0.993
1285.61	0.997
1294.3	1
1302.99	0.995
1311.68	1.002
1320.37	0.997
1329.06	0.995
1337.75	0.985
1346.44	0.991
1355.13	0.991
1363.82	0.983
1372.51	0.986
1381.21	0.989
1389.9	0.979
1398.59	0.974
1407.28	0.952
1415.97	0.956
1424.66	0.968
1433.35	0.961
1442.04	0.963
1450.73	0.95
1459.42	0.948
1468.11	0.956
1476.81	0.949
1485.5	0.927
1494.19	0.893
1502.88	0.85
1511.57	0.786
1520.26	0.737
1528.95	0.689
1537.64	0.596
1546.33	0.491
1555.02	0.5
1563.72	0.577
1572.41	0.668
1581.1	0.692
1589.79	0.727
1598.48	0.811
1607.17	0.896
1615.86	0.945
1624.55	0.968
1633.24	0.978
1641.93	0.986
1650.62	0.994
1659.32	0.99
1668.01	0.993
1676.7	0.991
1685.39	0.989
1694.08	0.99
1702.77	0.986
1711.46	0.99
1720.15	0.99
1728.84	0.993
1737.53	0.989
1746.22	0.991
1754.92	0.99
1763.61	0.99
1772.3	0.99
1780.99	0.989
1789.68	0.987
1798.37	0.985
1807.06	0.987
1815.75	0.986
1824.44	0.983
1833.13	0.982
1841.82	0.983
1850.52	0.982
1859.21	0.982
1867.9	0.986
1876.59	0.989
1885.28	0.987
1893.97	0.99
1902.66	0.989
1911.35	0.989
1920.04	0.99
1928.73	0.99
1937.42	0.991
1946.12	0.991
1954.81	0.989
1963.5	0.99
1972.19	0.986
1980.88	0.987
1989.57	0.987
1998.26	0.986
2006.95	0.991
2015.64	0.994
2024.33	0.991
2033.03	0.9969
2041.72	1.001
2050.41	1
2059.1	0.997
2067.79	0.998
2076.48	0.9969
2085.17	0.997
2093.86	0.9941
2102.55	1.0017
2111.24	1.001
2119.93	0.9915
2128.63	0.9751
2137.32	1.0016
2146.01	1.001
2154.7	0.9942
2163.39	1
2172.08	1.001
2180.77	0.9952
2189.46	0.994
2198.15	0.993
2206.84	0.994
2215.53	0.99
2224.23	0.987
2232.92	0.9832
2241.61	0.9793
2250.3	0.946
2258.99	0.9665
2267.68	0.979
2276.37	0.9682
2285.06	0.968
2293.75	0.97
2302.44	0.967
2311.13	0.978
2319.83	0.98
2328.52	0.957
2337.21	0.976
2345.9	0.967
2354.59	0.966
2363.28	0.9925
2371.97	0.9883
2380.66	0.989
2389.35	0.989
2398.04	0.99
2406.73	0.994
2415.43	0.993
2424.12	0.991
2432.81	0.9874
2441.5	0.9833
2450.19	0.9909
2458.88	0.993
2467.57	0.995
2476.26	0.993
2484.95	0.995
2493.64	0.9942
2502.33	0.995
2511.03	0.994
2519.72	0.991
2528.41	0.9948
2537.1	0.995
2545.79	0.9938
2554.48	1.0002
2563.17	0.9948
2571.86	0.9966
2580.55	0.9916
2589.24	0.9946
2597.94	0.9954
2606.63	0.994
2615.32	0.993
2624.01	0.9838
2632.7	0.978
2641.39	0.9938
2650.08	0.9994
2658.77	0.994
2667.46	0.994
2676.15	0.994
2684.84	0.995
2693.54	0.9947
2702.23	0.995
2710.92	0.993
2719.61	0.9965
2728.3	1.0002
2736.99	0.994
2745.68	0.993
2754.37	0.9965
2763.06	0.9972
2771.75	0.9935
2780.44	0.9945
2789.14	0.9925
2797.83	0.994
2806.52	0.993
2815.21	0.993
2823.9	0.995
2832.59	0.995
2841.28	0.995
2849.97	0.9915
2858.66	0.994
2867.35	0.993
2876.04	0.993
2884.74	1.0034
2893.43	0.9943
2902.12	0.9947
2910.81	0.9916
2919.5	0.9937
2928.19	0.991
2936.88	0.99
2945.57	0.989
2954.26	0.9863
2962.95	0.9795
2971.64	0.9706
2980.34	0.9353
2989.03	0.9184
2997.72	0.9731
3006.41	0.982
3015.1	0.987
3023.79	0.986
3032.48	0.98
3041.17	0.966
3049.86	0.9387
3058.55	0.9007
3067.25	0.9463
3075.94	0.9677
3084.63	0.98
3093.32	0.988
3102.01	0.9893
3110.7	0.9906
3119.39	0.9946
3128.08	0.9917
3136.77	1.0004
3145.46	1
3154.15	1
3162.85	1.001
3171.54	1.0007
3180.23	1.0016
3188.92	1.0054
3197.61	1.002
3206.3	1.001
3214.99	1.0016
3223.68	1.0054
3232.37	1.004
3241.06	1.0044
3249.75	1.0056
3258.45	1.0072
3267.14	1.006
3275.83	1.006
3284.52	1.005
3293.21	1.005
3301.9	1.005
3310.59	1.005
3319.28	1.0056
3327.97	1.005
3336.66	1.006
3345.35	1.005
3354.05	1.005
3362.74	1.0044
3371.43	1.005
3380.12	1.005
3388.81	1.005
3397.5	1.0056
3406.19	1.002
3414.88	1.004
3423.57	1.004
3432.26	1.002
3440.95	1.0015
3449.65	1.0045
3458.34	1.0015
3467.03	1.004
3475.72	1.005
3484.41	1.002
3493.1	1.001
3501.79	1.0015
3510.48	0.997
3519.17	1.004
3527.86	1.002
3536.55	1.004
3545.25	1.0015
3553.94	0.998
3562.63	1
3571.32	1.0025
3580.01	0.9935
3588.7	1.001
3597.39	0.9985
3606.08	0.9995
3614.77	1.001
3623.46	0.9971
3632.16	1.001
3640.85	1.002
3649.54	0.996
3658.23	0.9975
3666.92	1.0015
3675.61	1.0005
3684.3	0.9973
3692.99	1
3701.68	0.998
3710.37	0.9986
3719.06	0.997
3727.76	1
3736.45	0.9961
3745.14	1.0029
3753.83	0.9978
3762.52	1.0027
3771.21	0.995
3779.9	0.9946
3788.59	1.002
3797.28	1.0016
