Infrared Spectrum: 2-Chloroethyl methyl sulfide
Formula: C 3 H 7 Cl S
CAS: 542-81-4
State: gas
Origin: Sadtler Research Labs Under US-EPA Contract
1/CM	ABSORBANCE
450	0.00437545
462	0.0105886
474	0.00603812
486	0.00770079
498	0.00910094
510	0.0049005
522	0.0058631
534	0.0160141
546	0.00516303
558	0.00630065
570	0.00603812
582	0.00857588
594	0.00656318
606	0.0126888
618	0.0325533
630	0.0453297
642	0.048305
654	0.0640566
666	0.12155
678	0.285192
690	0.513503
702	0.473424
714	0.705848
726	0.832386
738	0.223761
750	0.1198
762	0.21571
774	0.24765
786	0.0604687
798	0.0231899
810	0.0221398
822	0.0308032
834	0.0533805
846	0.0911844
858	0.0948598
870	0.0615188
882	0.0398166
894	0.0273903
906	0.0303656
918	0.0420918
930	0.0553932
942	0.0651942
954	0.0955598
966	0.112799
978	0.100285
990	0.0860213
1002	0.0807708
1014	0.0822585
1026	0.0868089
1038	0.0844462
1050	0.0511053
1062	0.029578
1074	0.0209147
1086	0.0201271
1098	0.0235399
1110	0.033866
1122	0.0560058
1134	0.0620439
1146	0.0448921
1158	0.0297531
1170	0.0243275
1182	0.0358787
1194	0.0721949
1206	0.267077
1218	0.436582
1230	0.184556
1242	0.0572309
1254	0.0639691
1266	0.170205
1278	0.285804
1290	0.345311
1302	0.254564
1314	0.164342
1326	0.133189
1338	0.0863714
1350	0.0407792
1362	0.0354411
1374	0.0336035
1386	0.0380664
1398	0.0620439
1410	0.116825
1422	0.210547
1434	0.361675
1446	0.403942
1458	0.27119
1470	0.111661
1482	0.0522429
1494	0.0330784
1506	0.0296656
1518	0.0287905
1530	0.0238024
1542	0.0236274
1554	0.0228398
1566	0.019602
1578	0.0212647
1590	0.0168892
1602	0.0139139
1614	0.0123388
1626	0.0077883
1638	0.00805083
1650	0.00551307
1662	0.00446296
1674	0.00498801
1686	0.00665068
1698	0.00542556
1710	0.00253776
1722	0.00402541
1734	0.00560058
1746	0.0028878
1758	0.00306281
1770	0.00271278
1782	0.00175018
1794	0.00148765
1806	0.000962599
1818	0.00087509
1830	0.00105011
1842	0.000700072
1854	0.000787581
1866	0.000700072
1878	0.000612563
1890	0.00122513
1902	0.000700072
1914	0.000612563
1926	0.000962599
1938	0.000787581
1950	0.000787581
1962	0.00140014
1974	0.00323783
1986	0.00568809
1998	0.00752577
2010	0.0114637
2022	0.0121638
2034	0.00962599
2046	0.0103261
2058	0.00980101
2070	0.00621314
2082	0.00463798
2094	0.0038504
2106	0.00280029
2118	0.00297531
2130	0.00315032
2142	0.00367538
2154	0.00437545
2166	0.00507552
2178	0.00612563
2190	0.00603812
2202	0.00560058
2214	0.00507552
2226	0.00446296
2238	0.00542556
2250	0.00612563
2262	0.00621314
2274	0.00630065
2286	0.00708823
2298	0.00612563
2310	0.00472549
2322	0.00446296
2334	0.00358787
2346	0.00857588
2358	0.00437545
2370	0.0120762
2382	0.0133889
2394	0.0106761
2406	0.00848837
2418	0.00717574
2430	0.00630065
2442	0.00647567
2454	0.00612563
2466	0.00603812
2478	0.0049005
2490	0.00472549
2502	0.00411292
2514	0.00315032
2526	0.00332534
2538	0.00297531
2550	0.00236274
2562	0.00341285
2574	0.00411292
2586	0.00367538
2598	0.00280029
2610	0.00157516
2622	0.00122513
2634	0.00306281
2646	0.00323783
2658	0.00621314
2670	0.00507552
2682	0.0028878
2694	0.004813
2706	0.00761328
2718	0.00997603
2730	0.0137389
2742	0.0187269
2754	0.0181144
2766	0.0125138
2778	0.0119012
2790	0.014789
2802	0.0232774
2814	0.0350036
2826	0.0589811
2838	0.111574
2850	0.17283
2862	0.180269
2874	0.14894
2886	0.142465
2898	0.175193
2910	0.308207
2922	0.570384
2934	0.663143
2946	0.566796
2958	0.454959
2970	0.474036
2982	0.480599
2994	0.427744
3006	0.333059
3018	0.180969
3030	0.105536
3042	0.0599437
3054	0.0410417
3066	0.0359662
3078	0.0330784
3090	0.0305406
3102	0.0282654
3114	0.0261652
3126	0.0231899
3138	0.0202146
3150	0.0164517
3162	0.0135639
3174	0.00997603
3186	0.00796332
3198	0.00743827
3210	0.00743827
3222	0.00901343
3234	0.00962599
3246	0.00945097
3258	0.00927595
3270	0.00805083
3282	0.00735076
3294	0.00927595
3306	0.0103261
3318	0.00857588
3330	0.00945097
3342	0.00743827
3354	0.00726325
3366	0.00700072
3378	0.00673819
3390	0.00612563
3402	0.00525054
3414	0.00708823
3426	0.00743827
3438	0.004813
3450	0.00420043
3462	0.00568809
3474	0.00542556
3486	0.00253776
3498	0.00437545
3510	0.00455047
3522	0.00332534
3534	0.00455047
3546	0.00306281
3558	0.00253776
3570	0.0038504
3582	0.00411292
3594	0.00437545
3606	0.00420043
3618	0.00411292
3630	0.00297531
3642	0.00376289
3654	0.00472549
3666	0.00350036
3678	0.00603812
3690	0.00673819
3702	0.00428794
3714	0.00560058
3726	0.0038504
3738	0.004813
3750	0.00376289
3762	0.00420043
3774	0.00183769
3786	0.000350036
3798	0.00113762
3810	0.000962599
3822	0.00560058
3834	0.00323783
3846	0.00367538
3858	0.00402541
3870	0.0019252
3882	0.00621314
3894	0.0038504
3906	0.000787581
3918	0.00087509
3930	0.00568809
3942	0.00332534
3954	0.00323783
3966	0.00533805
