Infrared Spectrum: 1-BUTENE, 3,4-DICHLORO-
Formula: C4 H6 Cl2
CAS: 760-23-6
State: SOLUTION (10% IN CCl4 FOR 3800-1333 AND 10% IN CS2 FOR 1333-430 CM^-^1)
Class: COBLENTZ III
Instrument: DOW KBr FOREPRISM-GRATING
Instrument parameters: BLAZED AT 3.5, 12.0, 20.0 MICRON, CHANGED AT 5.0, 7.5, 14.9 MICRON
Sampling: TRANSMISSION
Path length: 0.011, 0.010 CM
Resolution: 4
Origin: DOW CHEMICAL COMPANY
1/CM	TRANSMITTANCE
379.13	0.204
387.826	0.213
396.521	0.316
405.217	0.674
413.913	0.894
422.608	0.978
431.304	1.004
440	1.01
448.695	0.986
457.391	1.001
466.087	1.033
474.782	1.046
483.478	1.047
492.174	1.033
500.869	1.017
509.565	0.991
518.261	0.995
526.957	1.016
535.652	1.02
544.348	1.024
553.044	1.028
561.739	1.029
570.435	1.021
579.131	1.02
587.826	1.017
596.522	1
605.218	0.957
613.913	0.903
622.609	0.913
631.305	0.936
640	0.9
648.696	0.857
657.392	0.857
666.087	0.903
674.783	0.85
683.479	0.759
692.174	0.716
700.87	0.795
709.566	0.622
718.261	0.322
726.957	0.039
735.653	0.599
744.348	0.744
753.044	0.826
761.74	0.715
770.435	0.611
779.131	0.685
787.827	0.803
796.522	0.924
805.218	0.953
813.914	0.978
822.61	0.97
831.305	0.953
840.001	0.871
848.697	0.829
857.392	0.82
866.088	0.842
874.784	0.884
883.479	0.921
892.175	0.945
900.871	0.929
909.566	0.816
918.262	0.702
926.958	0.131
935.653	0.278
944.349	0.565
953.045	0.712
961.74	0.799
970.436	0.636
979.132	0.312
987.827	0.694
996.523	0.895
1005.22	0.921
1013.91	0.93
1022.61	0.959
1031.31	0.96
1040	0.955
1048.7	0.945
1057.39	0.937
1066.09	0.936
1074.78	0.944
1083.48	0.979
1092.18	0.994
1100.87	0.993
1109.57	0.972
1118.26	0.981
1126.96	0.998
1135.65	0.994
1144.35	0.986
1153.05	0.956
1161.74	0.947
1170.44	0.838
1179.13	0.7101
1187.83	0.93
1196.52	0.913
1205.22	0.9
1213.91	0.729
1222.61	0.792
1231.31	0.861
1240	0.892
1248.7	0.854
1257.39	0.819
1266.09	0.786
1274.78	0.879
1283.48	0.849
1292.18	0.795
1300.87	0.846
1309.57	0.761
1318.26	0.842
1326.96	0.94
1335.65	0.955
1344.35	0.971
1353.05	0.978
1361.74	0.989
1370.44	0.993
1379.13	0.99
1387.83	0.986
1396.52	0.962
1405.22	0.876
1413.92	0.713
1422.61	0.421
1431.31	0.713
1440	0.805
1448.7	0.839
1457.39	0.902
1466.09	0.938
1474.79	0.951
1483.48	0.94
1492.18	0.905
1500.87	0.868
1509.57	0.812
1518.26	0.758
1526.96	0.717
1535.65	0.643
1544.35	0.546
1553.05	0.526
1561.74	0.605
1570.44	0.683
1579.13	0.71
1587.83	0.731
1596.52	0.801
1605.22	0.884
1613.92	0.934
1622.61	0.952
1631.31	0.955
1640	0.884
1648.7	0.944
1657.39	0.978
1666.09	0.983
1674.79	0.983
1683.48	0.981
1692.18	0.976
1700.87	0.982
1709.57	0.986
1718.26	0.989
1726.96	0.983
1735.66	0.979
1744.35	0.989
1753.05	0.995
1761.74	1
1770.44	1.002
1779.13	1.004
1787.83	1
1796.53	1
1805.22	1.001
1813.92	1.002
1822.61	1.001
1831.31	1.001
1840	0.997
1848.7	0.987
1857.4	0.957
1866.09	0.903
1874.79	0.933
1883.48	0.976
1892.18	0.991
1900.87	1
1909.57	1
1918.26	1.004
1926.96	1.005
1935.66	1.004
1944.35	1.001
1953.05	0.991
1961.74	0.997
1970.44	0.998
1979.13	1
1987.83	0.998
1996.53	0.998
2005.22	1.005
2013.92	1.001
2022.61	1.005
2031.31	1.008
2040	1
2048.7	1.002
2057.4	1.002
2066.09	1.005
2074.79	1.005
2083.48	1.005
2092.18	1.002
2100.87	1.001
2109.57	1.0021
2118.27	1.002
2126.96	1.004
2135.66	1.001
2144.35	1.002
2153.05	1.001
2161.74	1
2170.44	0.9998
2179.14	0.998
2187.83	0.998
2196.53	0.998
2205.22	0.998
2213.92	0.997
2222.61	0.995
2231.31	0.994
2240	0.9939
2248.7	0.987
2257.4	0.9847
2266.09	0.978
2274.79	0.9754
2283.48	0.967
2292.18	0.967
2300.87	0.966
2309.57	0.97
2318.27	0.97
2326.96	0.967
2335.66	0.9694
2344.35	0.9487
2353.05	0.9676
2361.74	0.9752
2370.44	0.9744
2379.14	0.968
2387.83	0.9726
2396.53	0.9748
2405.22	0.978
2413.92	0.9748
2422.61	0.9765
2431.31	0.9775
2440.01	0.976
2448.7	0.978
2457.4	0.976
2466.09	0.9743
2474.79	0.974
2483.48	0.9753
2492.18	0.9717
2500.88	0.9713
2509.57	0.9734
2518.27	0.9743
2526.96	0.9717
2535.66	0.9677
2544.35	0.9686
2553.05	0.97
2561.74	0.97
2570.44	0.97
2579.14	0.9707
2587.83	0.97
2596.53	0.967
2605.22	0.968
2613.92	0.9667
2622.61	0.964
2631.31	0.966
2640.01	0.9647
2648.7	0.9676
2657.4	0.966
2666.09	0.966
2674.79	0.967
2683.48	0.9652
2692.18	0.963
2700.88	0.9626
2709.57	0.9566
2718.27	0.959
2726.96	0.956
2735.66	0.956
2744.35	0.959
2753.05	0.957
2761.75	0.956
2770.44	0.9594
2779.14	0.96
2787.83	0.957
2796.53	0.957
2805.22	0.956
2813.92	0.955
2822.62	0.9515
2831.31	0.9441
2840.01	0.93
2848.7	0.943
2857.4	0.9301
2866.09	0.923
2874.79	0.9305
2883.48	0.933
2892.18	0.9385
2900.88	0.9365
2909.57	0.933
2918.27	0.93
2926.96	0.9105
2935.66	0.8905
2944.35	0.8612
2953.05	0.7742
2961.75	0.784
2970.44	0.7465
2979.14	0.7893
2987.83	0.8262
2996.53	0.7557
3005.22	0.8601
3013.92	0.8736
3022.62	0.8631
3031.31	0.8859
3040.01	0.9157
3048.7	0.922
3057.4	0.9167
3066.09	0.9012
3074.79	0.8736
3083.49	0.869
3092.18	0.794
3100.88	0.7931
3109.57	0.902
3118.27	0.9359
3126.96	0.943
3135.66	0.948
3144.36	0.949
3153.05	0.953
3161.75	0.9526
3170.44	0.9543
3179.14	0.956
3187.83	0.959
3196.53	0.962
3205.22	0.9623
3213.92	0.962
3222.62	0.9627
3231.31	0.963
3240.01	0.964
3248.7	0.964
3257.4	0.967
3266.09	0.967
3274.79	0.966
3283.49	0.967
3292.18	0.9673
3300.88	0.97
3309.57	0.9703
3318.27	0.968
3326.96	0.97
3335.66	0.971
3344.36	0.971
3353.05	0.9717
3361.75	0.972
3370.44	0.975
3379.14	0.974
3387.83	0.974
3396.53	0.975
3405.23	0.975
3413.92	0.976
3422.62	0.9752
3431.31	0.9742
3440.01	0.9724
3448.7	0.9748
3457.4	0.972
3466.1	0.972
3474.79	0.972
3483.49	0.972
3492.18	0.971
3500.88	0.97
3509.57	0.9708
3518.27	0.9702
3526.96	0.97
3535.66	0.968
3544.36	0.968
3553.05	0.97
3561.75	0.97
3570.44	0.9683
3579.14	0.967
3587.83	0.964
3596.53	0.966
3605.23	0.966
3613.92	0.966
3622.62	0.9669
3631.31	0.9639
3640.01	0.9701
3648.7	0.9661
3657.4	0.968
3666.1	0.972
3674.79	0.964
3683.49	0.9709
3692.18	0.9671
3700.88	0.9699
3709.57	0.97
3718.27	0.9709
3726.97	0.9681
3735.66	0.966
3744.36	0.966
3753.05	0.97
3761.75	0.97
3770.44	0.972
3779.14	0.974
3787.84	0.975
3796.53	0.972
