Infrared Spectrum: 3,4-DICHLORO-1-BUTENE
Formula: C4 H6 Cl2
CAS: 760-23-6
State: SOLUTION (10% CCl4 FOR 2.5-7.5, 10% CS2 FOR 7.5-16 MICRON)
Class: COBLENTZ
Instrument: Not specified, most likely a prism, grating, or hybrid spectrometer.
Sampling: TRANSMISSION
Path length: 0.01 CM, 0.01 CM
Resolution: 4
Origin: DOW CHEMICAL COMPANY
MICROMETERS	TRANSMITTANCE
2.064	0.898
2.1044	0.898
2.14481	0.898
2.18521	0.898
2.22562	0.886
2.26602	0.883
2.30642	0.884
2.34683	0.883
2.38723	0.888
2.42763	0.89
2.46804	0.898
2.50844	0.896
2.54885	0.9
2.58925	0.898
2.62965	0.896
2.67006	0.9
2.71046	0.896
2.75086	0.9
2.79127	0.891
2.83167	0.89
2.87208	0.886
2.91248	0.883
2.95288	0.881
2.99329	0.881
3.03369	0.881
3.07409	0.881
3.1145	0.881
3.1549	0.886
3.19531	0.883
3.23571	0.826
3.27611	0.798
3.31652	0.838
3.35692	0.769
3.39732	0.704
3.43773	0.826
3.47813	0.862
3.51854	0.864
3.55894	0.881
3.59934	0.902
3.63975	0.895
3.68015	0.893
3.72056	0.895
3.76096	0.896
3.80136	0.896
3.84177	0.898
3.88217	0.896
3.92257	0.895
3.96298	0.895
4.00338	0.896
4.04379	0.896
4.08419	0.895
4.12459	0.891
4.165	0.891
4.2054	0.907
4.2458	0.912
4.28621	0.896
4.32661	0.874
4.36702	0.871
4.40742	0.874
4.44782	0.879
4.48823	0.893
4.52863	0.895
4.56903	0.896
4.60944	0.896
4.64984	0.896
4.69025	0.896
4.73065	0.896
4.77105	0.896
4.81146	0.895
4.85186	0.893
4.89226	0.891
4.93267	0.893
4.97307	0.895
5.01348	0.891
5.05388	0.893
5.09428	0.89
5.13469	0.884
5.17509	0.893
5.2155	0.895
5.2559	0.886
5.2963	0.878
5.33671	0.831
5.37711	0.828
5.41751	0.871
5.45792	0.893
5.49832	0.895
5.53873	0.895
5.57913	0.898
5.61953	0.896
5.65994	0.896
5.70034	0.891
5.74074	0.89
5.78115	0.89
5.82155	0.891
5.86196	0.895
5.90236	0.893
5.94276	0.891
5.98317	0.89
6.02357	0.878
6.06397	0.824
6.10438	0.769
6.14478	0.833
6.18519	0.828
6.22559	0.783
6.26599	0.694
6.3064	0.621
6.3468	0.591
6.3872	0.515
6.42761	0.453
6.46801	0.453
6.50842	0.527
6.54882	0.604
6.58922	0.646
6.62963	0.704
6.67003	0.762
6.71044	0.807
6.75084	0.833
6.79124	0.84
6.83165	0.819
6.87205	0.79
6.91245	0.694
6.95286	0.651
6.99326	0.606
7.03367	0.51
7.07407	0.594
7.11447	0.701
7.15488	0.817
7.19528	0.855
7.23568	0.857
7.27609	0.865
7.31649	0.879
7.3569	0.876
7.3973	0.876
7.4377	0.879
7.47811	0.86
7.51851	0.852
7.55891	0.821
7.59932	0.666
7.63972	0.63
7.68013	0.652
7.72053	0.682
7.76093	0.694
7.80134	0.723
7.84174	0.759
7.88214	0.706
7.92255	0.673
7.96295	0.671
8.00336	0.689
8.04376	0.762
8.08416	0.768
8.12457	0.74
8.16497	0.704
8.20538	0.642
8.24578	0.621
8.28618	0.726
8.32659	0.786
8.36699	0.798
8.40739	0.798
8.4478	0.769
8.4882	0.589
8.52861	0.572
8.56901	0.738
8.60941	0.793
8.64982	0.798
8.69022	0.828
8.73062	0.853
8.77103	0.864
8.81143	0.869
8.85184	0.867
8.89224	0.862
8.93264	0.859
8.97305	0.848
9.01345	0.841
9.05385	0.855
9.09426	0.864
9.13466	0.862
9.17507	0.865
9.21547	0.862
9.25587	0.852
9.29628	0.835
9.33668	0.817
9.37709	0.816
9.41749	0.823
9.45789	0.823
9.4983	0.821
9.5387	0.828
9.5791	0.836
9.61951	0.841
9.65991	0.843
9.70032	0.848
9.74072	0.847
9.78112	0.84
9.82153	0.833
9.86193	0.81
9.90233	0.807
9.94274	0.814
9.98314	0.814
10.0235	0.79
10.0639	0.757
10.1044	0.666
10.1448	0.532
10.1852	0.372
10.2256	0.264
10.266	0.347
10.3064	0.52
10.3468	0.639
10.3872	0.695
10.4276	0.714
10.468	0.656
10.5084	0.532
10.5488	0.414
10.5892	0.445
10.6296	0.376
10.67	0.261
10.7104	0.085
10.7508	0.046
10.7912	0.134
10.8316	0.367
10.872	0.518
10.9124	0.63
10.9528	0.671
10.9932	0.704
11.0336	0.761
11.074	0.792
11.1144	0.812
11.1549	0.821
11.1953	0.824
11.2357	0.821
11.2761	0.809
11.3165	0.795
11.3569	0.79
11.3973	0.771
11.4377	0.749
11.4781	0.733
11.5185	0.711
11.5589	0.704
11.5993	0.695
11.6397	0.692
11.6801	0.685
11.7205	0.685
11.7609	0.689
11.8013	0.69
11.8417	0.695
11.8821	0.723
11.9225	0.754
11.9629	0.793
12.0033	0.819
12.0437	0.826
12.0841	0.829
12.1245	0.833
12.1649	0.838
12.2053	0.84
12.2458	0.845
12.2862	0.838
12.3266	0.819
12.367	0.812
12.4074	0.797
12.4478	0.788
12.4882	0.786
12.5286	0.778
12.569	0.764
12.6094	0.735
12.6498	0.694
12.6902	0.656
12.7306	0.599
12.771	0.56
12.8114	0.542
12.8518	0.537
12.8922	0.525
12.9326	0.493
12.973	0.431
13.0134	0.414
13.0538	0.446
13.0942	0.498
13.1346	0.57
13.175	0.603
13.2154	0.656
13.2558	0.656
13.2963	0.652
13.3367	0.644
13.3771	0.627
13.4175	0.601
13.4579	0.579
13.4983	0.541
13.5387	0.477
13.5791	0.374
13.6195	0.271
13.6599	0.135
13.7003	0.068
13.7407	0.048
13.7811	0.058
13.8215	0.089
13.8619	0.137
13.9023	0.178
13.9427	0.245
13.9831	0.285
14.0235	0.393
14.0639	0.446
14.1043	0.494
14.1447	0.527
14.1851	0.558
14.2255	0.572
14.2659	0.579
14.3063	0.577
14.3468	0.563
14.3872	0.542
14.4276	0.527
14.468	0.52
14.5084	0.52
14.5488	0.539
14.5892	0.565
14.6296	0.579
14.67	0.599
14.7104	0.603
14.7508	0.604
14.7912	0.609
14.8316	0.608
14.872	0.608
14.9124	0.611
14.9528	0.613
14.9932	0.618
15.0336	0.608
15.074	0.597
15.1144	0.58
15.1548	0.572
15.1952	0.57
15.2356	0.565
15.276	0.561
15.3164	0.563
15.3568	0.567
15.3972	0.573
15.4377	0.58
15.4781	0.584
15.5185	0.591
15.5589	0.594
15.5993	0.594
15.6397	0.594
15.6801	0.597
15.7205	0.603
15.7609	0.601
15.8013	0.604
15.8417	0.603
15.8821	0.603
15.9225	0.603
