Infrared Spectrum: 1-Butene, 3,4-dichloro-
Formula: C 4 H 6 Cl 2
CAS: 760-23-6
State: gas
Origin: Sadtler Research Labs Under US-EPA Contract
1/CM	ABSORBANCE
450	0.0331711
462	0.0201858
474	0.014647
486	0.00504644
498	0.01317
510	0.023386
522	0.0212935
534	0.0126777
546	0.0120622
558	0.0117545
570	0.0137854
582	0.0109545
594	0.00486182
606	0.0242475
618	0.0372945
630	0.0378483
642	0.0284939
654	0.0281862
666	0.0325557
678	0.0502798
690	0.0715733
702	0.0930515
714	0.189365
726	0.487228
738	0.572833
750	0.186534
762	0.0856665
774	0.134839
786	0.136931
798	0.0641268
810	0.0107083
822	0.00406177
834	0.0120007
846	0.0174779
858	0.0164933
870	0.01397
882	0.00978518
894	0.0109545
906	0.0282478
918	0.113114
930	0.358113
942	0.335527
954	0.141547
966	0.118591
978	0.177856
990	0.151455
1002	0.0665269
1014	0.0337866
1026	0.0217859
1038	0.0193242
1050	0.0211089
1062	0.0200627
1074	0.0193242
1086	0.016924
1098	0.00836971
1110	0.00880051
1122	0.00972364
1134	0.00775429
1146	0.0102775
1158	0.0240629
1170	0.0628959
1182	0.0835125
1194	0.0472027
1206	0.0433256
1218	0.0726811
1230	0.0705271
1242	0.0504644
1254	0.0600034
1266	0.0691732
1278	0.0580956
1290	0.046895
1302	0.0574187
1314	0.0708964
1326	0.0473258
1338	0.0151393
1350	0.0129854
1362	0.0114468
1374	0.00904667
1386	0.0107083
1398	0.0203704
1410	0.0684347
1422	0.115637
1434	0.107514
1446	0.0703425
1458	0.0377252
1470	0.0132315
1482	0.00486182
1494	0.00270785
1506	0.00240014
1518	0.000676962
1530	6.1542e-05
1542	0.00153855
1554	0.000553878
1566	0.00203089
1578	0.00240014
1590	0.00393869
1602	0.00529261
1614	0.00824663
1626	0.0127392
1638	0.0268323
1650	0.0296017
1662	0.0136008
1674	0.00418486
1686	0.00363098
1698	0.00467719
1710	0.00627728
1722	0.0068927
1734	0.00861588
1746	0.0116314
1758	0.0139085
1770	0.0105237
1782	0.0084928
1794	0.0102775
1806	0.0101544
1818	0.010216
1830	0.00855434
1842	0.0061542
1854	0.0176626
1866	0.031571
1878	0.0257861
1890	0.00972364
1902	0.00535415
1914	0.00510799
1926	0.0042464
1938	0.00492336
1950	0.00621574
1962	0.00621574
1974	0.00461565
1986	0.00369252
1998	0.00393869
2010	0.00406177
2022	0.00369252
2034	0.00375406
2046	0.00418486
2058	0.0042464
2070	0.00406177
2082	0.0038156
2094	0.00418486
2106	0.00406177
2118	0.00393869
2130	0.00387715
2142	0.00418486
2154	0.00467719
2166	0.00486182
2178	0.00461565
2190	0.00449257
2202	0.00436948
2214	0.00449257
2226	0.00473873
2238	0.00492336
2250	0.00547724
2262	0.00572341
2274	0.00621574
2286	0.00572341
2298	0.00578495
2310	0.00566186
2322	0.00547724
2334	0.00572341
2346	0.00596957
2358	0.00652345
2370	0.00720041
2382	0.00670808
2394	0.00590803
2406	0.00596957
2418	0.00590803
2430	0.00547724
2442	0.00504644
2454	0.00480028
2466	0.0049849
2478	0.00553878
2490	0.00590803
2502	0.00510799
2514	0.00504644
2526	0.00553878
2538	0.00560032
2550	0.00566186
2562	0.00486182
2574	0.00430794
2586	0.00455411
2598	0.00449257
2610	0.00455411
2622	0.00436948
2634	0.00406177
2646	0.00406177
2658	0.00406177
2670	0.00430794
2682	0.00480028
2694	0.00492336
2706	0.00516953
2718	0.00609266
2730	0.00652345
2742	0.00609266
2754	0.0054157
2766	0.00529261
2778	0.00473873
2790	0.00461565
2802	0.00461565
2814	0.00473873
2826	0.0054157
2838	0.00775429
2850	0.0114468
2862	0.0139085
2874	0.0150162
2886	0.013847
2898	0.0110776
2910	0.0113853
2922	0.0143393
2934	0.0196934
2946	0.0390176
2958	0.0756967
2970	0.0918207
2982	0.0902821
2994	0.0750197
3006	0.0709579
3018	0.0588342
3030	0.0513876
3042	0.0319403
3054	0.0175395
3066	0.0193857
3078	0.0304633
3090	0.0589572
3102	0.0916976
3114	0.0530492
3126	0.0136008
3138	0.00720041
3150	0.0061542
3162	0.00578495
3174	0.00590803
3186	0.00504644
3198	0.00486182
3210	0.00467719
3222	0.00473873
3234	0.00480028
3246	0.00492336
3258	0.00443102
3270	0.00461565
3282	0.00480028
3294	0.0042464
3306	0.00516953
3318	0.00578495
3330	0.00473873
3342	0.00486182
3354	0.00516953
3366	0.00523107
3378	0.00461565
3390	0.00504644
3402	0.00535415
3414	0.00492336
3426	0.0049849
3438	0.00449257
3450	0.00449257
3462	0.00449257
3474	0.00510799
3486	0.0049849
3498	0.00418486
3510	0.00486182
3522	0.00443102
3534	0.00504644
3546	0.00516953
3558	0.00603112
3570	0.00633883
3582	0.0073235
3594	0.00744658
3606	0.00578495
3618	0.00683116
3630	0.00713887
3642	0.00516953
3654	0.00572341
3666	0.00449257
3678	0.00646191
3690	0.00529261
3702	0.00443102
3714	0.00529261
3726	0.00412331
3738	0.00553878
3750	0.00473873
3762	0.00486182
3774	0.00584649
3786	0.00449257
3798	0.00590803
3810	0.00449257
3822	0.00627728
3834	0.00516953
3846	0.00480028
3858	0.0061542
3870	0.00646191
3882	0.00455411
3894	0.00430794
3906	0.00529261
3918	0.00535415
3930	0.00504644
3942	0.00529261
3954	0.00572341
3966	0.00510799
