Infrared Spectrum: 1-Butene, 3,4-dichloro-
Formula: C4 H6 Cl2
CAS: 760-23-6
State: GAS (14 mmHg, N2 ADDED, TOTAL PRESSURE 600 mmHg)
Class: COBLENTZ
Instrument: DOW KBr FOREPRISM-GRATING
Instrument parameters: GRATING CHANGED AT 5.0, 7.5, 15.0 MICRON
Sampling: TRANSMISSION
Path length: 5 CM
Resolution: 2
Origin: DOW CHEMICAL COMPANY
1/CM	TRANSMITTANCE
459	0.9074
468	0.9162
477	0.9211
486	0.923
495	0.9186
504	0.9131
513	0.9088
522	0.909
531	0.9132
540	0.9171
549	0.9206
558	0.924
567	0.9272
576	0.9294
585	0.9302
594	0.9282
603	0.9252
612	0.9197
621	0.9121
630	0.9094
639	0.9131
648	0.9096
657	0.9054
666	0.9004
675	0.9
684	0.9031
693	0.8939
702	0.8875
711	0.8821
720	0.8299
729	0.7223
738	0.5102
747	0.5851
756	0.8923
765	0.893
774	0.8669
783	0.8384
792	0.8431
801	0.8678
810	0.9134
819	0.9193
828	0.9183
837	0.9131
846	0.9051
855	0.9055
864	0.9098
873	0.9123
882	0.914
891	0.915
900	0.9141
909	0.9084
918	0.8811
927	0.7246
936	0.6866
945	0.8178
954	0.8487
963	0.8637
972	0.837
981	0.7868
990	0.8294
999	0.8867
1008	0.9012
1017	0.9092
1026	0.9113
1035	0.9117
1044	0.9092
1053	0.9061
1062	0.9057
1071	0.902
1080	0.9005
1089	0.9048
1098	0.9112
1107	0.9146
1116	0.9169
1125	0.919
1134	0.9199
1143	0.918
1152	0.9137
1161	0.9057
1170	0.8812
1179	0.8443
1188	0.8577
1197	0.9036
1206	0.907
1215	0.8827
1224	0.8758
1233	0.8929
1242	0.893
1251	0.8808
1260	0.8656
1269	0.8623
1278	0.8681
1287	0.8723
1296	0.8703
1305	0.8671
1314	0.8626
1323	0.8685
1332	0.8821
1341	0.8883
1350	0.8769
1359	0.8664
1368	0.8723
1377	0.8835
1386	0.9073
1395	0.8871
1404	0.8809
1413	0.8608
1422	0.8173
1431	0.8171
1440	0.8276
1449	0.8205
1458	0.8251
1467	0.8484
1476	0.8719
1485	0.888
1494	0.8919
1503	0.8939
1512	0.8951
1521	0.8951
1530	0.8952
1539	0.8952
1548	0.8964
1557	0.8948
1566	0.8923
1575	0.8923
1584	0.8934
1593	0.894
1602	0.8929
1611	0.8911
1620	0.889
1629	0.882
1638	0.8711
1647	0.8644
1656	0.8671
1665	0.8837
1674	0.8869
1683	0.8868
1692	0.8866
1701	0.8872
1710	0.8877
1719	0.8876
1728	0.8877
1737	0.8882
1746	0.8894
1755	0.8909
1764	0.8928
1773	0.8936
1782	0.8933
1791	0.8916
1800	0.8905
1809	0.889
1818	0.8876
1827	0.8866
1836	0.8853
1845	0.8832
1854	0.8753
1863	0.8676
1872	0.8699
1881	0.882
1890	0.8901
1899	0.8912
1908	0.8917
1917	0.8914
1926	0.8914
1935	0.8906
1944	0.8886
1953	0.896
1962	0.8913
1971	0.8876
1980	0.8871
1989	0.8867
1998	0.8875
2007	0.8889
2016	0.8899
2025	0.8906
2034	0.891
2043	0.8911
2052	0.8912
2061	0.891
2070	0.8908
2079	0.8906
2088	0.8903
2097	0.8897
2106	0.8892
2115	0.8887
2124	0.8882
2133	0.8876
2142	0.8869
2151	0.8862
2160	0.8855
2169	0.8849
2178	0.8845
2187	0.884
2196	0.8837
2205	0.8832
2214	0.8828
2223	0.8824
2232	0.8821
2241	0.8817
2250	0.8814
2259	0.881
2268	0.8803
2277	0.8793
2286	0.8783
2295	0.8766
2304	0.8738
2313	0.8695
2322	0.8621
2331	0.8559
2340	0.8547
2349	0.8556
2358	0.8589
2367	0.8642
2376	0.8696
2385	0.8753
2394	0.8772
2403	0.8786
2412	0.8793
2421	0.8795
2430	0.8797
2439	0.8797
2448	0.8797
2457	0.8795
2466	0.8782
2475	0.8791
2484	0.8787
2493	0.8781
2502	0.8775
2511	0.8769
2520	0.8765
2529	0.876
2538	0.8756
2547	0.8751
2556	0.8747
2565	0.8743
2574	0.874
2583	0.8736
2592	0.8732
2601	0.8725
2610	0.8718
2619	0.872
2628	0.8723
2637	0.8726
2646	0.8729
2655	0.8724
2664	0.8721
2673	0.8716
2682	0.8713
2691	0.8709
2700	0.8707
2709	0.8705
2718	0.8702
2727	0.8693
2736	0.8684
2745	0.8674
2754	0.8667
2763	0.866
2772	0.865
2781	0.864
2790	0.8631
2799	0.8621
2808	0.8602
2817	0.8581
2826	0.854
2835	0.841
2844	0.8077
2853	0.7238
2862	0.728
2871	0.7569
2880	0.7824
2889	0.7855
2898	0.778
2907	0.7019
2916	0.5932
2925	0.509
2934	0.5036
2943	0.5683
2952	0.6683
2961	0.728
2970	0.762
2979	0.7985
2988	0.8142
2997	0.8159
3006	0.8184
3015	0.826
3024	0.8356
3033	0.8459
3042	0.8547
3051	0.8559
3060	0.853
3069	0.8445
3078	0.8277
3087	0.8057
3096	0.805
3105	0.8238
3114	0.8511
3123	0.859
3132	0.8596
3141	0.8599
3150	0.8603
3159	0.8599
3168	0.8594
3177	0.8589
3186	0.8585
3195	0.8581
3204	0.8578
3213	0.8577
3222	0.8577
3231	0.8577
3240	0.8577
3249	0.8576
3258	0.8575
3267	0.8574
3276	0.8573
3285	0.8569
3294	0.8566
3303	0.8562
3312	0.8559
3321	0.8557
3330	0.8555
3339	0.8554
3348	0.8552
3357	0.855
3366	0.8549
3375	0.8548
3384	0.8546
3393	0.8545
3402	0.8544
3411	0.8545
3420	0.8546
3429	0.8547
3438	0.8548
3447	0.8549
3456	0.8553
3465	0.8556
3474	0.856
3483	0.856
3492	0.8561
3501	0.8561
3510	0.8561
3519	0.856
3528	0.856
3537	0.8559
3546	0.8559
3555	0.8558
3564	0.8557
3573	0.8554
3582	0.8551
3591	0.8547
3600	0.8544
3609	0.8539
3618	0.8535
3627	0.8529
3636	0.8525
3645	0.852
3654	0.8518
3663	0.8516
3672	0.8514
3681	0.8512
3690	0.8511
3699	0.8509
3708	0.8507
3717	0.8505
3726	0.8507
3735	0.8509
3744	0.8512
3753	0.8513
3762	0.8513
3771	0.8511
3780	0.8509
3789	0.8506
