Infrared Spectrum: ACETONITRILE
Formula: C2 H3 N
CAS: 75-05-8
State: LIQUID (NEAT)
Class: COBLENTZ III
Instrument: BECKMAN IR-9 (GRATING)
Instrument parameters: ORDER CHANGES AT 670, 1200, 2000 CM^-^1
Sampling: TRANSMISSION
Path length: 0.011 CM CELL
Resolution: 4
Origin: DOW CHEMICAL COMPANY
1/CM	TRANSMITTANCE
401.821	0.576
410.358	0.576
418.896	0.627
427.433	0.686
435.97	0.744
444.507	0.777
453.045	0.813
461.582	0.851
470.119	0.872
478.656	0.902
487.194	0.922
495.731	0.937
504.268	0.945
512.806	0.953
521.343	0.958
529.88	0.969
538.417	0.971
546.955	0.978
555.492	0.986
564.029	0.99
572.567	0.991
581.104	0.991
589.641	0.994
598.178	0.998
606.716	0.994
615.253	0.995
623.79	0.998
632.327	0.995
640.865	0.991
649.402	0.975
657.939	0.946
666.477	0.943
675.014	0.957
683.551	0.955
692.088	0.959
700.626	0.957
709.163	0.947
717.7	0.933
726.238	0.891
734.775	0.745
743.312	0.416
751.849	0.22
760.387	0.46
768.924	0.742
777.461	0.863
785.998	0.915
794.536	0.945
803.073	0.966
811.61	0.973
820.148	0.977
828.685	0.983
837.222	0.987
845.759	0.987
854.297	0.981
862.834	0.978
871.371	0.97
879.909	0.953
888.446	0.931
896.983	0.894
905.52	0.791
914.058	0.286
922.595	0.115
931.132	0.622
939.669	0.829
948.207	0.872
956.744	0.89
965.281	0.883
973.819	0.848
982.356	0.792
990.893	0.732
999.43	0.668
1007.97	0.57
1016.5	0.44
1025.04	0.192
1033.58	0.064
1042.12	0.018
1050.65	0.064
1059.19	0.236
1067.73	0.366
1076.27	0.46
1084.8	0.531
1093.34	0.599
1101.88	0.662
1110.42	0.709
1118.95	0.765
1127.49	0.809
1136.03	0.836
1144.56	0.856
1153.1	0.878
1161.64	0.888
1170.18	0.899
1178.71	0.911
1187.25	0.919
1195.79	0.919
1204.33	0.923
1212.86	0.927
1221.4	0.923
1229.94	0.918
1238.47	0.91
1247.01	0.898
1255.55	0.882
1264.09	0.852
1272.62	0.816
1281.16	0.768
1289.7	0.718
1298.24	0.674
1306.77	0.603
1315.31	0.536
1323.85	0.465
1332.38	0.388
1340.92	0.325
1349.46	0.262
1358	0.182
1366.53	0.08
1375.07	0.008
1383.61	0.002
1392.15	0.021
1400.68	0.021
1409.22	0.012
1417.76	0.005
1426.29	0.004
1434.83	0.002
1443.37	0.001
1451.91	0
1460.44	0
1468.98	0.018
1477.52	0.045
1486.06	0.076
1494.59	0.107
1503.13	0.127
1511.67	0.152
1520.2	0.178
1528.74	0.203
1537.28	0.242
1545.82	0.279
1554.35	0.327
1562.89	0.384
1571.43	0.453
1579.97	0.524
1588.5	0.58
1597.04	0.637
1605.58	0.696
1614.11	0.748
1622.65	0.779
1631.19	0.812
1639.73	0.839
1648.26	0.859
1656.8	0.875
1665.34	0.892
1673.88	0.906
1682.41	0.917
1690.95	0.919
1699.49	0.926
1708.02	0.931
1716.56	0.931
1725.1	0.931
1733.64	0.934
1742.17	0.933
1750.71	0.925
1759.25	0.914
1767.79	0.921
1776.32	0.922
1784.86	0.915
1793.4	0.911
1801.93	0.91
1810.47	0.907
1819.01	0.894
1827.55	0.832
1836.08	0.854
1844.62	0.884
1853.16	0.912
1861.7	0.927
1870.23	0.933
1878.77	0.93
1887.31	0.946
1895.84	0.957
1904.38	0.965
1912.92	0.97
1921.46	0.971
1929.99	0.974
1938.53	0.978
1947.07	0.982
1955.61	0.982
1964.14	0.983
1972.68	0.985
1981.22	0.99
1989.75	0.99
1998.29	0.991
2006.83	1.001
2015.37	1.008
2023.9	1.008
2032.44	1.006
2040.98	1.001
2049.52	0.9912
2058.05	0.9583
2066.59	0.9046
2075.13	0.8936
2083.66	0.9532
2092.2	0.9706
2100.74	0.9808
2109.28	0.99
2117.81	0.994
2126.35	0.994
2134.89	0.994
2143.43	0.993
2151.96	0.9912
2160.5	0.9872
2169.04	0.975
2177.57	0.9652
2186.11	0.9433
2194.65	0.9041
2203.19	0.7102
2211.72	0.7887
2220.26	0.7935
2228.8	0.6571
2237.34	0.4093
2245.87	0.0512
2254.41	0.0047
2262.95	0.096
2271.48	0.3121
2280.02	0.3688
2288.56	0.1184
2297.1	0.0352
2305.63	0.3194
2314.17	0.5896
2322.71	0.6875
2331.25	0.7183
2339.78	0.7401
2348.32	0.7518
2356.86	0.7928
2365.39	0.8025
2373.93	0.8182
2382.47	0.8312
2391.01	0.8101
2399.54	0.7329
2408.08	0.6124
2416.62	0.5827
2425.16	0.6687
2433.69	0.7179
2442.23	0.7515
2450.77	0.7788
2459.3	0.8104
2467.84	0.8284
2476.38	0.8273
2484.92	0.8203
2493.45	0.827
2501.99	0.848
2510.53	0.8633
2519.07	0.8853
2527.6	0.8966
2536.14	0.9106
2544.68	0.9146
2553.21	0.918
2561.75	0.9202
2570.29	0.922
2578.83	0.9226
2587.36	0.926
2595.9	0.927
2604.44	0.9202
2612.98	0.8898
2621.51	0.712
2630.05	0.579
2638.59	0.8449
2647.12	0.8931
2655.66	0.9097
2664.2	0.912
2672.74	0.9048
2681.27	0.891
2689.81	0.8971
2698.35	0.9
2706.89	0.8945
2715.42	0.887
2723.96	0.8685
2732.5	0.8535
2741.04	0.85
2749.57	0.843
2758.11	0.84
2766.65	0.8385
2775.18	0.829
2783.72	0.8161
2792.26	0.7987
2800.8	0.7833
2809.33	0.7641
2817.87	0.7402
2826.41	0.7011
2834.95	0.6633
2843.48	0.6301
2852.02	0.6113
2860.56	0.5952
2869.09	0.5676
2877.63	0.5378
2886.17	0.518
2894.71	0.4788
2903.24	0.4427
2911.78	0.4073
2920.32	0.3648
2928.86	0.2882
2937.39	0.1555
2945.93	0.076
2954.47	0.1924
2963	0.2208
2971.54	0.2317
2980.08	0.2092
2988.62	0.1547
2997.15	0.0987
3005.69	0.071
3014.23	0.1099
3022.77	0.1805
3031.3	0.2175
3039.84	0.2568
3048.38	0.2842
3056.91	0.3143
3065.45	0.3386
3073.99	0.3546
3082.53	0.372
3091.06	0.3909
3099.6	0.4071
3108.14	0.424
3116.68	0.4373
3125.21	0.466
3133.75	0.4872
3142.29	0.4992
3150.82	0.4983
3159.36	0.325
3167.9	0.1891
3176.44	0.465
3184.97	0.5438
3193.51	0.5628
3202.05	0.492
3210.59	0.5417
3219.12	0.6448
3227.66	0.6905
3236.2	0.7122
3244.73	0.7383
3253.27	0.7536
3261.81	0.7655
3270.35	0.777
3278.88	0.7831
3287.42	0.793
3295.96	0.8001
3304.5	0.8111
3313.03	0.8151
3321.57	0.8148
3330.11	0.804
3338.64	0.8174
3347.18	0.8322
3355.72	0.839
3364.26	0.8442
3372.79	0.8498
3381.33	0.8459
3389.87	0.8431
3398.41	0.8501
3406.94	0.8581
3415.48	0.862
3424.02	0.8671
3432.55	0.874
3441.09	0.8761
3449.63	0.8801
3458.17	0.884
3466.7	0.884
3475.24	0.89
3483.78	0.89
3492.32	0.89
3500.85	0.891
3509.39	0.89
3517.93	0.888
3526.46	0.89
3535	0.89
3543.54	0.888
3552.08	0.89
3560.61	0.888
3569.15	0.892
3577.69	0.8949
3586.23	0.896
3594.76	0.8981
3603.3	0.8962
3611.84	0.8845
3620.37	0.8483
3628.91	0.8556
3637.45	0.8747
3645.99	0.875
3654.52	0.8502
3663.06	0.8476
3671.6	0.8674
3680.14	0.8858
3688.67	0.89
3697.21	0.892
3705.75	0.8949
3714.28	0.9017
3722.82	0.9028
3731.36	0.9038
3739.9	0.908
3748.43	0.9072
3756.97	0.907
3765.51	0.9062
3774.05	0.9032
3782.58	0.903
3791.12	0.903
