Infrared Spectrum: Acetonitrile
Formula: C2 H3 N
CAS: 75-05-8
State: GAS (80 mmHg, N2 ADDED, TOTAL PRESSURE 600 mmHg)
Boiling point: 82 C
Class: COBLENTZ
Instrument: DOW KBr FOREPRISM-GRATING
Instrument parameters: GRATING CHANGED AT 5.0, 7.5, 15.0 MICRON
Sampling: TRANSMISSION
Path length: 10 CM
Resolution: 2
Origin: DOW CHEMICAL COMPANY
1/CM	TRANSMITTANCE
384	0.7444
393	0.7498
402	0.7549
411	0.7613
420	0.7687
429	0.7782
438	0.7892
447	0.8002
456	0.8112
465	0.8228
474	0.8341
483	0.8402
492	0.8411
501	0.8386
510	0.8333
519	0.8281
528	0.8274
537	0.8314
546	0.8381
555	0.8397
564	0.8376
573	0.8444
582	0.8412
591	0.8419
600	0.8511
609	0.8539
618	0.8535
627	0.8636
636	0.865
645	0.8625
654	0.87
663	0.8621
672	0.8676
681	0.8549
690	0.8177
699	0.7752
708	0.7972
717	0.78
726	0.7872
735	0.8014
744	0.8458
753	0.8605
762	0.8624
771	0.8655
780	0.8713
789	0.8621
798	0.8582
807	0.8605
816	0.8527
825	0.852
834	0.8561
843	0.8516
852	0.846
861	0.846
870	0.8445
879	0.8327
888	0.814
897	0.7916
906	0.7779
915	0.7951
924	0.8047
933	0.7851
942	0.8215
951	0.8486
960	0.8469
969	0.8404
978	0.8347
987	0.8243
996	0.7936
1005	0.7594
1014	0.7172
1023	0.6801
1032	0.6496
1041	0.644
1050	0.6626
1059	0.6866
1068	0.714
1077	0.7895
1086	0.8049
1095	0.818
1104	0.8314
1113	0.8312
1122	0.8339
1131	0.8334
1140	0.8269
1149	0.8305
1158	0.8327
1167	0.8276
1176	0.8215
1185	0.8236
1194	0.8201
1203	0.8177
1212	0.8164
1221	0.8128
1230	0.8091
1239	0.8128
1248	0.8104
1257	0.8036
1266	0.8034
1275	0.8029
1284	0.7957
1293	0.7943
1302	0.7929
1311	0.7843
1320	0.773
1329	0.7759
1338	0.7722
1347	0.7647
1356	0.7555
1365	0.5794
1374	0.4983
1383	0.4416
1392	0.3952
1401	0.3574
1410	0.3256
1419	0.2976
1428	0.2691
1437	0.2416
1446	0.2158
1455	0.2031
1464	0.1991
1473	0.217
1482	0.2404
1491	0.2672
1500	0.3039
1509	0.3439
1518	0.3893
1527	0.4444
1536	0.5564
1545	0.7349
1554	0.6966
1563	0.7679
1572	0.7652
1581	0.7773
1590	0.7977
1599	0.8019
1608	0.8159
1617	0.807
1626	0.8178
1635	0.7993
1644	0.8202
1653	0.7576
1662	0.8324
1671	0.8217
1680	0.809
1689	0.8287
1698	0.7978
1707	0.8202
1716	0.8203
1725	0.8197
1734	0.8177
1743	0.8267
1752	0.8286
1761	0.8291
1770	0.8324
1779	0.8362
1788	0.8309
1797	0.8392
1806	0.8374
1815	0.8346
1824	0.8348
1833	0.8361
1842	0.8341
1851	0.84
1860	0.8404
1869	0.8408
1878	0.8475
1887	0.8437
1896	0.8408
1905	0.8442
1914	0.8437
1923	0.8471
1932	0.8467
1941	0.8443
1950	0.8408
1959	0.8423
1968	0.8486
1977	0.8467
1986	0.842
1995	0.8442
2004	0.8486
2013	0.8505
2022	0.8519
2031	0.8488
2040	0.8452
2049	0.8449
2058	0.8463
2067	0.848
2076	0.8483
2085	0.8489
2094	0.8499
2103	0.8508
2112	0.8519
2121	0.853
2130	0.8548
2139	0.8568
2148	0.8581
2157	0.8522
2166	0.8515
2175	0.8526
2184	0.8548
2193	0.8571
2202	0.8552
2211	0.8488
2220	0.8419
2229	0.8326
2238	0.8189
2247	0.7996
2256	0.7807
2265	0.8134
2274	0.7858
2283	0.7653
2292	0.789
2301	0.8106
2310	0.7887
2319	0.7855
2328	0.8258
2337	0.832
2346	0.8336
2355	0.8293
2364	0.8254
2373	0.8237
2382	0.8219
2391	0.8211
2400	0.8206
2409	0.816
2418	0.8113
2427	0.8152
2436	0.819
2445	0.8247
2454	0.8247
2463	0.8225
2472	0.8203
2481	0.8224
2490	0.8254
2499	0.8282
2508	0.8296
2517	0.8301
2526	0.8306
2535	0.8313
2544	0.8329
2553	0.835
2562	0.8381
2571	0.8373
2580	0.833
2589	0.8253
2598	0.8172
2607	0.808
2616	0.8041
2625	0.8281
2634	0.8345
2643	0.8382
2652	0.8418
2661	0.845
2670	0.8479
2679	0.8496
2688	0.85
2697	0.8488
2706	0.848
2715	0.8478
2724	0.8501
2733	0.8455
2742	0.8412
2751	0.8408
2760	0.846
2769	0.8526
2778	0.8542
2787	0.8511
2796	0.8452
2805	0.8416
2814	0.8422
2823	0.8411
2832	0.8313
2841	0.8163
2850	0.8058
2859	0.8008
2868	0.7916
2877	0.7972
2886	0.8029
2895	0.7975
2904	0.7951
2913	0.7982
2922	0.7979
2931	0.776
2940	0.7163
2949	0.7439
2958	0.7691
2967	0.7117
2976	0.7374
2985	0.7924
2994	0.7972
3003	0.802
3012	0.8068
3021	0.8115
3030	0.8164
3039	0.8211
3048	0.8259
3057	0.8307
3066	0.8395
3075	0.848
3084	0.8538
3093	0.8582
3102	0.8624
3111	0.8648
3120	0.8642
3129	0.8614
3138	0.8574
3147	0.8511
3156	0.8412
3165	0.8428
3174	0.8414
3183	0.8158
3192	0.8536
3201	0.8686
3210	0.8643
3219	0.8639
3228	0.8692
3237	0.8733
3246	0.8754
3255	0.8758
3264	0.8752
3273	0.8732
3282	0.8731
3291	0.8752
3300	0.8768
3309	0.8776
3318	0.877
3327	0.8764
3336	0.8764
3345	0.8769
3354	0.878
3363	0.8802
3372	0.8792
3381	0.8758
3390	0.8737
3399	0.8751
3408	0.8774
3417	0.8788
3426	0.8789
3435	0.8782
3444	0.8761
3453	0.8756
3462	0.8791
3471	0.8807
3480	0.8802
3489	0.8787
3498	0.8735
3507	0.8727
3516	0.8734
3525	0.8743
3534	0.8746
3543	0.8735
3552	0.8719
3561	0.8721
3570	0.8718
3579	0.8707
3588	0.8685
3597	0.866
3606	0.8646
3615	0.8633
3624	0.8658
3633	0.8649
3642	0.8682
3651	0.8751
3660	0.8657
3669	0.8624
3678	0.873
3687	0.8759
3696	0.8775
3705	0.8772
3714	0.8726
3723	0.8667
3732	0.8644
3741	0.8686
3750	0.8759
3759	0.8836
3768	0.883
3777	0.8851
3786	0.8886
