Infrared Spectrum: Acetonitrile
Formula: C 2 H 3 N
CAS: 75-05-8
State: gas
Origin: Sadtler Research Labs Under US-EPA Contract
1/CM	ABSORBANCE
450	0.00477836
462	0.0084324
474	0.0126486
486	0.0129297
498	0.00365404
510	0.00850267
522	0.00098378
534	0.00428647
546	0.00997834
558	0.0129297
570	0.00484863
582	0.00815132
594	0.00646484
606	0.00168648
618	0.00779997
630	0.00815132
642	0.0084324
654	0.0106108
666	0.017427
678	0.0607836
690	0.147637
702	0.142367
714	0.0999239
726	0.129789
738	0.0839727
750	0.031762
762	0.00653511
774	0.00653511
786	0.00168648
798	0.00597295
810	0.00407566
822	0.00323242
834	0.00245945
846	0.00224864
858	0.00519998
870	0.00990807
882	0.0269837
894	0.0649295
906	0.0894537
918	0.0647889
930	0.0645781
942	0.0583241
954	0.0193945
966	0.0153189
978	0.0238918
990	0.0416701
1002	0.0615565
1014	0.0847456
1026	0.13274
1038	0.129648
1050	0.113767
1062	0.110254
1074	0.0914213
1086	0.0633133
1098	0.0422323
1110	0.0300053
1122	0.0185513
1134	0.00969726
1146	0.00794051
1158	0.00407566
1170	0.00259999
1182	0.0028108
1194	0.00435674
1206	0.00414593
1218	0.00751889
1230	0.0104
1242	0.0184107
1254	0.0243134
1266	0.0222756
1278	0.0290215
1290	0.0434971
1302	0.0480647
1314	0.0724484
1326	0.119881
1338	0.226972
1350	0.179821
1362	0.24721
1374	0.382901
1386	0.365474
1398	0.542765
1410	0.549722
1422	0.7027
1434	0.376085
1446	0.367934
1458	0.366036
1470	0.363718
1482	0.518241
1494	0.351701
1506	0.29928
1518	0.331534
1530	0.38789
1542	0.324437
1554	0.190572
1566	0.196334
1578	0.166259
1590	0.100346
1602	0.0839024
1614	0.0623998
1626	0.0548106
1638	0.0505944
1650	0.0463079
1662	0.0255783
1674	0.0276864
1686	0.0394917
1698	0.0365404
1710	0.0147567
1722	0.0160216
1734	0.041108
1746	0.0253675
1758	0.0242432
1770	0.0274756
1782	0.0181297
1794	0.0279675
1806	0.0164432
1818	0.0190432
1830	0.024735
1842	0.0215026
1854	0.0165135
1866	0.017427
1878	0.0121567
1890	0.0174972
1902	0.0160918
1914	0.0115243
1926	0.0091351
1938	0.00646484
1950	0.00618376
1962	0.00618376
1974	0.00583241
1986	0.00393512
1998	0.00470809
2010	0.00498917
2022	0.00548106
2034	0.00541079
2046	0.00948645
2058	0.0107513
2070	0.00878375
2082	0.0098378
2094	0.00955672
2106	0.00674592
2118	0.00337296
2130	0.00084324
2142	0.00182702
2154	0.00252972
2166	0.00084324
2178	0.00042162
2190	0.00400539
2202	0.00512971
2214	0.00871348
2226	0.0248756
2238	0.0538268
2250	0.073924
2262	0.0667565
2274	0.100767
2286	0.111659
2298	0.065843
2310	0.0772267
2322	0.0858699
2334	0.0397728
2346	0.0233999
2358	0.025508
2370	0.0208702
2382	0.0226972
2394	0.0266323
2406	0.0283188
2418	0.0328864
2430	0.0278972
2442	0.0226972
2454	0.0163026
2466	0.0186216
2478	0.0213621
2490	0.0195351
2502	0.0167243
2514	0.0179891
2526	0.0143351
2538	0.0121567
2550	0.0112432
2562	0.0121567
2574	0.0116648
2586	0.0157405
2598	0.027054
2610	0.0467296
2622	0.0536863
2634	0.0237513
2646	0.0110324
2658	0.00611349
2670	0.00231891
2682	0.0021081
2694	0.00098378
2706	0.0028108
2718	0.00337296
2730	0.00625403
2742	0.00695673
2754	0.0113135
2766	0.0104702
2778	0.00674592
2790	0.007027
2802	0.00815132
2814	0.00990807
2826	0.0131405
2838	0.0276864
2850	0.0410377
2862	0.0446917
2874	0.0618376
2886	0.068443
2898	0.0564971
2910	0.0630322
2922	0.0851672
2934	0.142016
2946	0.168999
2958	0.122621
2970	0.190361
2982	0.121075
2994	0.0761727
3006	0.0836213
3018	0.0544593
3030	0.0566376
3042	0.122691
3054	0.0506647
3066	0.0581836
3078	0.0597998
3090	0.0306377
3102	0.0364701
3114	0.0258594
3126	0.0209405
3138	0.0239621
3150	0.0321134
3162	0.0448323
3174	0.0376647
3186	0.041108
3198	0.0666862
3210	0.0151783
3222	0.0144054
3234	0.0146864
3246	0.00709727
3258	0.00463782
3270	0.00569187
3282	0.00590268
3294	0.00625403
3306	0.00808105
3318	0.00829186
3330	0.00737835
3342	0.00829186
3354	0.00744862
3366	0.0113135
3378	0.00730808
3390	0.00829186
3402	0.00758916
3414	0.00737835
3426	0.0077297
3438	0.00660538
3450	0.00618376
3462	0.00365404
3474	0.00527025
3486	0.00505944
3498	0.00379458
3510	0.00765943
3522	0.00653511
3534	0.0056216
3546	0.00815132
3558	0.0007027
3570	0.0112432
3582	0.00583241
3594	0.00646484
3606	0.00512971
3618	0.00379458
3630	0.0108216
3642	0.00534052
3654	0.00688646
3666	0.00590268
3678	0.0153189
3690	0.00885402
3702	0.00519998
3714	0.0049189
3726	0.00442701
3738	0.00660538
3750	0.00534052
3762	0.00302161
3774	0
3786	0.00442701
3798	0.0035135
3810	0.00646484
3822	0.00541079
3834	0.00498917
3846	0.00857294
3858	0.00365404
3870	0.007027
3882	0.00681619
3894	0.00878375
3906	0.00899456
3918	0.0105405
3930	0.0108216
3942	0.012227
3954	0.00808105
3966	0.00604322
