Infrared Spectrum: 1-PENTANETHIOL
Formula: C5 H12 S
CAS: 110-66-7
State: LIQUID
Boiling point: 124 C
Class: COBLENTZ III
Instrument: BAIRD (GRATING)
Instrument parameters: NaCl PRISM
Sampling: TRANSMISSION
Path length: 0.005 CM
Resolution: 2
Origin: WYANDOTTE CHEMICALS CORP.
1/CM	TRANSMITTANCE
4000	0.9128
3991	0.9116
3982	0.9104
3973	0.9097
3964	0.9091
3955	0.9085
3946	0.9078
3937	0.9073
3928	0.907
3919	0.9068
3910	0.9067
3901	0.9067
3892	0.9077
3883	0.9087
3874	0.9096
3865	0.9103
3856	0.911
3847	0.9117
3838	0.9121
3829	0.9123
3820	0.9124
3811	0.9124
3802	0.9123
3793	0.912
3784	0.9115
3775	0.9111
3766	0.9107
3757	0.9103
3748	0.9098
3739	0.9095
3730	0.9091
3721	0.9087
3712	0.9084
3703	0.908
3694	0.9075
3685	0.9071
3676	0.9071
3667	0.907
3658	0.907
3649	0.907
3640	0.907
3631	0.9074
3622	0.9078
3613	0.9083
3604	0.9088
3595	0.9093
3586	0.9099
3577	0.9104
3568	0.9111
3559	0.9117
3550	0.9121
3541	0.9124
3532	0.9124
3523	0.9123
3514	0.9118
3505	0.9115
3496	0.911
3487	0.9104
3478	0.9095
3469	0.9087
3460	0.9078
3451	0.9068
3442	0.9057
3433	0.9043
3424	0.9028
3415	0.9015
3406	0.9003
3397	0.899
3388	0.898
3379	0.897
3370	0.8961
3361	0.8954
3352	0.8947
3343	0.8947
3334	0.8946
3325	0.8945
3316	0.8943
3307	0.8937
3298	0.8928
3289	0.8902
3280	0.8843
3271	0.8756
3262	0.8661
3253	0.857
3244	0.8443
3235	0.8302
3226	0.8184
3217	0.8074
3208	0.8028
3199	0.8003
3190	0.7989
3181	0.7978
3172	0.7967
3163	0.7953
3154	0.7939
3145	0.7919
3136	0.7889
3127	0.7837
3118	0.7765
3109	0.7665
3100	0.7483
3091	0.7284
3082	0.6596
3073	0.6258
3064	0.5824
3055	0.518
3046	0.4529
3037	0.3876
3028	0.3218
3019	0.2557
3010	0.1891
3001	0.1223
2992	0.0549
2983	0.0266
2974	0.0255
2965	0.0248
2956	0.0247
2947	0.0245
2938	0.0246
2929	0.0247
2920	0.0249
2911	0.025
2902	0.0253
2893	0.0256
2884	0.0264
2875	0.0282
2866	0.0331
2857	0.0456
2848	0.0791
2839	0.2354
2830	0.4909
2821	0.5479
2812	0.5986
2803	0.6238
2794	0.6564
2785	0.6828
2776	0.6893
2767	0.69
2758	0.6795
2749	0.666
2740	0.6714
2731	0.689
2722	0.7068
2713	0.7247
2704	0.724
2695	0.7074
2686	0.6972
2677	0.7067
2668	0.7136
2659	0.7146
2650	0.7135
2641	0.7169
2632	0.7238
2623	0.7265
2614	0.7224
2605	0.6919
2596	0.6589
2587	0.6255
2578	0.5919
2569	0.5835
2560	0.6067
2551	0.6411
2542	0.6757
2533	0.7096
2524	0.7368
2515	0.761
2506	0.7817
2497	0.7942
2488	0.8046
2479	0.8118
2470	0.8178
2461	0.8216
2452	0.8253
2443	0.8267
2434	0.8274
2425	0.8271
2416	0.8268
2407	0.8264
2398	0.8265
2389	0.8268
2380	0.8278
2371	0.8297
2362	0.8321
2353	0.836
2344	0.8412
2335	0.8466
2326	0.8514
2317	0.8521
2308	0.8514
2299	0.8512
2290	0.8511
2281	0.8512
2272	0.8513
2263	0.8514
2254	0.8517
2245	0.852
2236	0.853
2227	0.854
2218	0.8555
2209	0.8578
2200	0.8607
2191	0.8615
2182	0.8581
2173	0.8532
2164	0.8497
2155	0.8498
2146	0.8525
2137	0.8553
2128	0.8581
2119	0.8609
2110	0.8635
2101	0.8657
2092	0.8667
2083	0.867
2074	0.867
2065	0.8668
2056	0.8673
2047	0.8667
2038	0.8654
2029	0.8652
2020	0.8653
2011	0.8654
2002	0.8656
1993	0.8658
1984	0.8658
1975	0.8658
1966	0.8659
1957	0.8661
1948	0.8662
1939	0.8664
1930	0.8665
1921	0.8667
1912	0.8668
1903	0.867
1894	0.8671
1885	0.8674
1876	0.8677
1867	0.868
1858	0.8683
1849	0.8686
1840	0.8689
1831	0.8692
1822	0.8696
1813	0.8698
1804	0.8693
1795	0.8688
1786	0.867
1777	0.8643
1768	0.8613
1759	0.8567
1750	0.8503
1741	0.8444
1732	0.8447
1723	0.8427
1714	0.836
1705	0.8314
1696	0.8315
1687	0.8327
1678	0.8338
1669	0.8334
1660	0.8311
1651	0.8275
1642	0.8207
1633	0.8174
1624	0.8169
1615	0.8158
1606	0.8142
1597	0.8103
1588	0.8021
1579	0.7938
1570	0.7845
1561	0.7741
1552	0.759
1543	0.7536
1534	0.7381
1525	0.7005
1516	0.6636
1507	0.6138
1498	0.4218
1489	0.2039
1480	0.0316
1471	0.0373
1462	0.0665
1453	0.1188
1444	0.1592
1435	0.2761
1426	0.5308
1417	0.591
1408	0.5796
1399	0.467
1390	0.2
1381	0.3124
1372	0.421
1363	0.5304
1354	0.4656
1345	0.4614
1336	0.5675
1327	0.5112
1318	0.3322
1309	0.2593
1300	0.37
1291	0.3134
1282	0.1614
1273	0.2687
1264	0.3409
1255	0.4974
1246	0.538
1237	0.4884
1228	0.374
1219	0.5879
1210	0.616
1201	0.6098
1192	0.632
1183	0.6544
1174	0.6433
1165	0.7195
1156	0.7403
1147	0.7601
1138	0.7446
1129	0.6707
1120	0.4999
1111	0.5029
1102	0.5082
1093	0.6238
1084	0.6814
1075	0.6934
1066	0.715
1057	0.7518
1048	0.7236
1039	0.6594
1030	0.6725
1021	0.6922
1012	0.7067
1003	0.6628
994	0.618
985	0.6233
976	0.6626
967	0.6692
958	0.7034
949	0.7032
940	0.6359
931	0.5376
922	0.5689
913	0.5762
904	0.6058
895	0.6056
886	0.5619
877	0.5678
868	0.6518
859	0.6782
850	0.6751
841	0.6907
832	0.7222
823	0.7301
814	0.7251
805	0.7121
796	0.7095
787	0.6944
778	0.6928
769	0.6362
760	0.5489
751	0.4632
742	0.4532
733	0.336
724	0.3091
715	0.448
706	0.4556
697	0.566
688	0.6698
679	0.7265
670	0.7337
661	0.7034
652	0.6116
643	0.6644
634	0.6907
