Infrared Spectrum: 1-Pentanethiol
Formula: C 5 H 12 S
CAS: 110-66-7
State: gas
Instrument: HP-GC/MS/IRD
Origin: NIST Mass Spectrometry Data Center
1/CM	ABSORBANCE
550	0.0001505
562	5.25e-05
574	0.0001295
586	0.0001365
598	5.25e-05
610	0.0001645
622	0.000203
634	0.000294
646	0.00042
658	0.000427
670	0.000336
682	0.000406
694	0.0006195
706	0.000875
718	0.001239
730	0.001344
742	0.0013755
754	0.001134
766	0.000882
778	0.0006685
790	0.000504
802	0.00049
814	0.000392
826	0.000427
838	0.000539
850	0.000581
862	0.0005705
874	0.0006265
886	0.0006825
898	0.000721
910	0.000777
922	0.0007595
934	0.0007665
946	0.000588
958	0.0004865
970	0.0004445
982	0.0005215
994	0.0005425
1006	0.0005775
1018	0.000518
1030	0.0004235
1042	0.000462
1054	0.000364
1066	0.000315
1078	0.0005005
1090	0.000686
1102	0.0008435
1114	0.000763
1126	0.0004445
1138	0.0003955
1150	0.0003815
1162	0.0003955
1174	0.000553
1186	0.0006615
1198	0.000728
1210	0.000882
1222	0.001267
1234	0.0014385
1246	0.0016275
1258	0.0023415
1270	0.0030485
1282	0.0030485
1294	0.002737
1306	0.0024745
1318	0.00189
1330	0.0015365
1342	0.001596
1354	0.001491
1366	0.001386
1378	0.00161
1390	0.0016415
1402	0.001204
1414	0.001211
1426	0.00196
1438	0.0032655
1450	0.004151
1462	0.0041965
1474	0.0032305
1486	0.0019145
1498	0.001078
1510	0.0006405
1522	0.0005005
1534	0.0004235
1546	0.0003535
1558	0.000266
1570	0.0002625
1582	0.000252
1594	0.000245
1606	0.0002205
1618	0.0001925
1630	0.000217
1642	0.0001995
1654	0.0001645
1666	0.0001645
1678	0.0001645
1690	0.000147
1702	0.0001365
1714	0.0001365
1726	0.0001225
1738	0.000119
1750	0.000112
1762	0.000105
1774	9.1e-05
1786	0.000119
1798	0.0001015
1810	9.45e-05
1822	0.000105
1834	6.65e-05
1846	0.0001015
1858	9.8e-05
1870	6.3e-05
1882	4.9e-05
1894	9.1e-05
1906	6.65e-05
1918	4.2e-05
1930	5.95e-05
1942	7.7e-05
1954	6.65e-05
1966	7.35e-05
1978	9.45e-05
1990	7.35e-05
2002	7.35e-05
2014	8.4e-05
2026	8.75e-05
2038	0.000105
2050	9.45e-05
2062	0.0001155
2074	9.1e-05
2086	7e-05
2098	0.0001085
2110	6.65e-05
2122	4.55e-05
2134	4.9e-05
2146	8.75e-05
2158	0.0001015
2170	0.0001015
2182	8.4e-05
2194	9.1e-05
2206	0.0001015
2218	8.05e-05
2230	8.05e-05
2242	7.35e-05
2254	8.4e-05
2266	6.65e-05
2278	0.0001015
2290	7.7e-05
2302	8.05e-05
2314	7e-05
2326	5.95e-05
2338	8.4e-05
2350	5.95e-05
2362	4.55e-05
2374	9.1e-05
2386	7e-05
2398	6.65e-05
2410	7e-05
2422	6.3e-05
2434	5.6e-05
2446	6.65e-05
2458	3.5e-05
2470	6.65e-05
2482	2.45e-05
2494	3.85e-05
2506	4.2e-05
2518	8.05e-05
2530	8.75e-05
2542	0.0001785
2554	0.000175
2566	0.000301
2578	0.0004305
2590	0.0006475
2602	0.0006125
2614	0.000469
2626	0.000336
2638	0.0004025
2650	0.0004095
2662	0.0004375
2674	0.000518
2686	0.000476
2698	0.0004375
2710	0.000539
2722	0.0005215
2734	0.000588
2746	0.0006685
2758	0.000721
2770	0.0007455
2782	0.0008575
2794	0.001162
2806	0.001379
2818	0.0018585
2830	0.002926
2842	0.005152
2854	0.008904
2866	0.0123515
2878	0.014161
2890	0.0134855
2902	0.0135205
2914	0.019117
2926	0.0286685
2938	0.035
2950	0.0329245
2962	0.0311325
2974	0.026068
2986	0.0138355
2998	0.006118
3010	0.0033005
3022	0.0022155
3034	0.001659
3046	0.0013545
3058	0.0010535
3070	0.0008435
3082	0.000798
3094	0.0006825
3106	0.0005915
3118	0.000539
3130	0.000469
3142	0.0004725
3154	0.000406
3166	0.000385
3178	0.000378
3190	0.0003745
3202	0.0003745
3214	0.0002695
3226	0.00021
3238	0.000175
3250	0.0001085
3262	0.00014
3274	0.000126
3286	8.4e-05
3298	0.0001715
3310	6.65e-05
3322	6.65e-05
3334	0.0001085
3346	9.45e-05
3358	0.000112
3370	7e-05
3382	7.35e-05
3394	0.0001505
3406	0.000119
3418	4.55e-05
3430	0.0001435
3442	0.0001365
3454	9.8e-05
3466	0.0001505
3478	3.15e-05
3490	7.35e-05
3502	5.25e-05
3514	4.55e-05
3526	8.75e-05
3538	0.000119
3550	0.0001365
3562	0.000154
3574	0.000126
3586	0.0001435
3598	0.0001575
3610	0.0001855
3622	0.00014
3634	0.000189
3646	0.000133
3658	0.0001645
3670	0.000154
3682	0.0001575
3694	0.0001015
3706	0.0001925
3718	0.0001365
3730	0.000133
3742	0.0001155
3754	0.0001645
3766	0.0002485
3778	0.000196
3790	0.0001575
3802	9.8e-05
3814	0.000161
3826	0.000189
3838	0.0002135
