Infrared Spectrum: ETHANOL, 2-METHOXY-
Formula: C3 H8 O2
CAS: 109-86-4
State: SOLUTION (10% IN CCl4 FOR 3800-1300, 10% IN CS2 FOR 1300-670, 10% IN CCl4 FOR 670-250 CM^-^1) VERSUS SOLVENT
Class: COBLENTZ III
Instrument: PERKIN-ELMER 521 (GRATING)
Instrument parameters: FILTERS AT 3150, 2500, 2000, 1150, 700, 410; GRATING CHANGES AT 2000, 630 CM^-^1
Sampling: TRANSMISSION
Path length: 0.012, 0.011, AND 0.010 CM (CsBr CELL)
Resolution: 4
Origin: DOW CORNING CORP.
1/CM	TRANSMITTANCE
249.153	0.632
258.984	0.637
268.814	0.638
278.645	0.634
288.476	0.629
298.307	0.632
308.137	0.63
317.968	0.632
327.799	0.614
337.629	0.59
347.46	0.567
357.291	0.546
367.121	0.526
376.952	0.519
386.783	0.526
396.614	0.551
406.444	0.579
416.275	0.591
426.106	0.6
435.936	0.601
445.767	0.597
455.598	0.578
465.429	0.589
475.259	0.598
485.09	0.591
494.921	0.577
504.751	0.555
514.582	0.53
524.413	0.516
534.244	0.457
544.074	0.451
553.905	0.516
563.736	0.526
573.566	0.528
583.397	0.534
593.228	0.536
603.058	0.544
612.889	0.551
622.72	0.558
632.551	0.562
642.381	0.563
652.212	0.566
662.043	0.586
671.873	0.616
681.704	0.621
691.535	0.645
701.366	0.671
711.196	0.689
721.027	0.71
730.858	0.724
740.688	0.742
750.519	0.761
760.35	0.771
770.181	0.777
780.011	0.775
789.842	0.77
799.673	0.747
809.503	0.685
819.334	0.485
829.165	0.229
838.995	0.358
848.826	0.652
858.657	0.677
868.488	0.579
878.318	0.507
888.149	0.183
897.98	0.448
907.81	0.672
917.641	0.693
927.472	0.679
937.303	0.7
947.133	0.663
956.964	0.528
966.795	0.479
976.625	0.553
986.456	0.618
996.287	0.542
1006.12	0.311
1015.95	0.202
1025.78	0.327
1035.61	0.287
1045.44	0.119
1055.27	0
1065.1	0
1074.93	0.037
1084.76	0.127
1094.59	0.154
1104.42	0.111
1114.26	0
1124.09	0
1133.92	0.084
1143.75	0.3
1153.58	0.405
1163.41	0.421
1173.24	0.281
1183.07	0.209
1192.9	0.187
1202.73	0.405
1212.56	0.489
1222.39	0.371
1232.22	0.339
1242.05	0.387
1251.89	0.433
1261.72	0.449
1271.55	0.506
1281.38	0.567
1291.21	0.622
1301.04	0.645
1310.87	0.644
1320.7	0.621
1330.53	0.608
1340.36	0.575
1350.19	0.575
1360.02	0.425
1369.85	0.287
1379.68	0.453
1389.52	0.444
1399.35	0.347
1409.18	0.37
1419.01	0.477
1428.84	0.477
1438.67	0.438
1448.5	0.281
1458.33	0.206
1468.16	0.334
1477.99	0.512
1487.82	0.652
1497.65	0.747
1507.48	0.793
1517.31	0.809
1527.14	0.826
1536.98	0.834
1546.81	0.845
1556.64	0.844
1566.47	0.846
1576.3	0.851
1586.13	0.845
1595.96	0.853
1605.79	0.855
1615.62	0.864
1625.45	0.863
1635.28	0.871
1645.11	0.872
1654.94	0.869
1664.77	0.872
1674.61	0.876
1684.44	0.884
1694.27	0.891
1704.1	0.893
1713.93	0.895
1723.76	0.895
1733.59	0.895
1743.42	0.896
1753.25	0.899
1763.08	0.897
1772.91	0.895
1782.74	0.896
1792.57	0.899
1802.4	0.902
1812.24	0.9
1822.07	0.9
1831.9	0.897
1841.73	0.896
1851.56	0.897
1861.39	0.897
1871.22	0.899
1881.05	0.893
1890.88	0.892
1900.71	0.892
1910.54	0.891
1920.37	0.883
1930.2	0.872
1940.03	0.851
1949.87	0.837
1959.7	0.841
1969.53	0.864
1979.36	0.877
1989.19	0.883
1999.02	0.891
2008.85	0.895
2018.68	0.893
2028.51	0.892
2038.34	0.891
2048.17	0.896
2058	0.895
2067.83	0.8845
2077.66	0.8795
2087.5	0.875
2097.33	0.873
2107.16	0.871
2116.99	0.865
2126.82	0.8555
2136.65	0.856
2146.48	0.8645
2156.31	0.8755
2166.14	0.8821
2175.97	0.8835
2185.8	0.892
2195.63	0.892
2205.46	0.893
2215.29	0.891
2225.13	0.8884
2234.96	0.8764
2244.79	0.8756
2254.62	0.8806
2264.45	0.8876
2274.28	0.8901
2284.11	0.8899
2293.94	0.891
2303.77	0.8902
2313.6	0.893
2323.43	0.895
2333.26	0.8964
2343.09	0.8954
2352.92	0.8914
2362.76	0.8898
2372.59	0.884
2382.42	0.8778
2392.25	0.8742
2402.08	0.8698
2411.91	0.868
2421.74	0.8686
2431.57	0.869
2441.4	0.868
2451.23	0.861
2461.06	0.8545
2470.89	0.855
2480.72	0.8604
2490.55	0.859
2500.39	0.857
2510.22	0.8554
2520.05	0.8524
2529.88	0.849
2539.71	0.846
2549.54	0.846
2559.37	0.8443
2569.2	0.8387
2579.03	0.83
2588.86	0.825
2598.69	0.822
2608.52	0.8227
2618.35	0.82
2628.18	0.821
2638.01	0.813
2647.85	0.8093
2657.68	0.8046
2667.51	0.796
2677.34	0.7903
2687.17	0.7773
2697	0.7635
2706.83	0.7301
2716.66	0.6809
2726.49	0.636
2736.32	0.6623
2746.15	0.6941
2755.98	0.696
2765.81	0.6882
2775.64	0.6596
2785.48	0.6283
2795.31	0.5559
2805.14	0.4027
2814.97	0.2855
2824.8	0.1383
2834.63	0.1375
2844.46	0.1502
2854.29	0.1463
2864.12	0.0898
2873.95	0.0495
2883.78	0.0253
2893.61	0.0295
2903.44	0.0587
2913.27	0.0593
2923.11	0.0212
2932.94	0.0243
2942.77	0.0568
2952.6	0.0922
2962.43	0.1461
2972.26	0.2271
2982.09	0.2568
2991.92	0.2425
3001.75	0.3785
3011.58	0.5721
3021.41	0.6835
3031.24	0.7293
3041.07	0.7494
3050.9	0.7658
3060.74	0.7738
3070.57	0.778
3080.4	0.781
3090.23	0.779
3100.06	0.777
3109.89	0.7742
3119.72	0.7714
3129.55	0.77
3139.38	0.7634
3149.21	0.7572
3159.04	0.7445
3168.87	0.7304
3178.7	0.7199
3188.53	0.706
3198.37	0.6848
3208.2	0.6633
3218.03	0.641
3227.86	0.6175
3237.69	0.5933
3247.52	0.5619
3257.35	0.5295
3267.18	0.4932
3277.01	0.4716
3286.84	0.4349
3296.67	0.4023
3306.5	0.3733
3316.33	0.3441
3326.16	0.3124
3336	0.285
3345.83	0.2595
3355.66	0.2379
3365.49	0.2134
3375.32	0.1971
3385.15	0.1757
3394.98	0.1621
3404.81	0.1422
3414.64	0.1314
3424.47	0.1203
3434.3	0.112
3444.13	0.104
3453.96	0.1
3463.79	0.102
3473.63	0.1069
3483.46	0.1158
3493.29	0.1307
3503.12	0.1644
3512.95	0.1964
3522.78	0.2493
3532.61	0.3013
3542.44	0.378
3552.27	0.4414
3562.1	0.4964
3571.93	0.5229
3581.76	0.5104
3591.59	0.4649
3601.42	0.4145
3611.25	0.4523
3621.09	0.5813
3630.92	0.6967
3640.75	0.7491
3650.58	0.8129
3660.41	0.8399
3670.24	0.8569
3680.07	0.8629
3689.9	0.871
3699.73	0.8789
3709.56	0.881
3719.39	0.8789
3729.22	0.888
3739.05	0.888
3748.88	0.885
3758.72	0.884
3768.55	0.887
3778.38	0.891
3788.21	0.892
