Infrared Spectrum: Ethanol, 2-methoxy-
Formula: C 3 H 8 O 2
CAS: 109-86-4
State: gas
Origin: Sadtler Research Labs Under US-EPA Contract
1/CM	ABSORBANCE
450	0
462	0.0288321
474	0.0225594
486	0.033564
498	0.0282818
510	0.0364252
522	0.0643769
534	0.0661376
546	0.0607454
558	0.050291
570	0.0254206
582	0.0241001
594	0.0364252
606	0.0276215
618	0.0278416
630	0.0227795
642	0.0243202
654	0.0259709
666	0.0265211
678	0.0236599
690	0.0276215
702	0.0244302
714	0.0229996
726	0.0253106
738	0.0199183
750	0.0223393
762	0.0260809
774	0.0260809
786	0.038186
798	0.0535924
810	0.0958501
822	0.147352
834	0.154505
846	0.153514
858	0.120831
870	0.124242
882	0.164299
894	0.161327
906	0.141409
918	0.0930989
930	0.0822044
942	0.083745
954	0.0911181
966	0.0987113
978	0.109716
990	0.122481
1002	0.152084
1014	0.207877
1026	0.275555
1038	0.423897
1050	0.776925
1062	1.09936
1074	1.05556
1086	0.600631
1098	0.415314
1110	0.554632
1122	0.959491
1134	1.10046
1146	0.934401
1158	0.475289
1170	0.465054
1182	0.460543
1194	0.427529
1206	0.309339
1218	0.247053
1230	0.231647
1242	0.229446
1254	0.202265
1266	0.165289
1278	0.133926
1290	0.109276
1302	0.0913382
1314	0.0849555
1326	0.0928788
1338	0.117309
1350	0.171342
1362	0.283919
1374	0.291292
1386	0.271043
1398	0.202265
1410	0.182676
1422	0.153294
1434	0.126773
1446	0.146911
1458	0.21492
1470	0.218551
1482	0.14449
1494	0.0847354
1506	0.0562335
1518	0.0398367
1530	0.0316932
1542	0.0319133
1554	0.0294923
1566	0.0269613
1578	0.0285019
1590	0.0253106
1602	0.0248704
1614	0.0254206
1626	0.0216791
1638	0.0242101
1650	0.0213489
1662	0.0216791
1674	0.0223393
1686	0.02388
1698	0.021569
1710	0.0193681
1722	0.0205786
1734	0.0218992
1746	0.0212389
1758	0.0211288
1770	0.0216791
1782	0.0212389
1794	0.0198083
1806	0.0194781
1818	0.0194781
1830	0.0182676
1842	0.0200284
1854	0.0195882
1866	0.0194781
1878	0.0205786
1890	0.0211288
1902	0.0216791
1914	0.02388
1926	0.0255307
1938	0.0305928
1950	0.0363152
1962	0.0378558
1974	0.0352147
1986	0.0296024
1998	0.0285019
2010	0.0289421
2022	0.0289421
2034	0.0261909
2046	0.0252005
2058	0.0255307
2070	0.0265211
2082	0.0291622
2094	0.0309229
2106	0.0315832
2118	0.0341143
2130	0.0354348
2142	0.0340042
2154	0.0304827
2166	0.0260809
2178	0.0248704
2190	0.0236599
2202	0.0216791
2214	0.021459
2226	0.021569
2238	0.0225594
2250	0.0237699
2262	0.0236599
2274	0.0232197
2286	0.0224494
2298	0.0226695
2310	0.0235498
2322	0.0257508
2334	0.0226695
2346	0.021459
2358	0.0248704
2370	0.0180475
2382	0.0180475
2394	0.0207987
2406	0.021459
2418	0.0217891
2430	0.0209087
2442	0.0213489
2454	0.0206886
2466	0.0205786
2478	0.0189279
2490	0.0182676
2502	0.0187078
2514	0.0189279
2526	0.0203585
2538	0.0222293
2550	0.0216791
2562	0.0228896
2574	0.0234398
2586	0.02399
2598	0.0258608
2610	0.0269613
2622	0.026301
2634	0.0271814
2646	0.0275115
2658	0.0301526
2670	0.0347745
2682	0.0385161
2694	0.0450088
2706	0.0555732
2718	0.0648171
2730	0.0710897
2742	0.0704294
2754	0.0666879
2766	0.0696591
2778	0.0829747
2790	0.113457
2802	0.176184
2814	0.298445
2826	0.442825
2838	0.523819
2850	0.524919
2862	0.579172
2874	0.735217
2886	0.864411
2898	0.88609
2910	0.845924
2922	0.816651
2934	0.863421
2946	0.800475
2958	0.667649
2970	0.519197
2982	0.441284
2994	0.353688
3006	0.280617
3018	0.147352
3030	0.086056
3042	0.0625061
3054	0.0521618
3066	0.0447887
3078	0.0417074
3090	0.0369755
3102	0.0338942
3114	0.0319133
3126	0.0300426
3138	0.0271814
3150	0.0257508
3162	0.0235498
3174	0.0226695
3186	0.0234398
3198	0.0216791
3210	0.0229996
3222	0.0229996
3234	0.0225594
3246	0.0221192
3258	0.0233298
3270	0.0218992
3282	0.0221192
3294	0.0227795
3306	0.0205786
3318	0.0210188
3330	0.0193681
3342	0.0189279
3354	0.0206886
3366	0.0199183
3378	0.0199183
3390	0.0211288
3402	0.0195882
3414	0.0209087
3426	0.0232197
3438	0.0216791
3450	0.0204686
3462	0.0213489
3474	0.0229996
3486	0.0247604
3498	0.0281718
3510	0.0299325
3522	0.0269613
3534	0.0256407
3546	0.0235498
3558	0.0244302
3570	0.0268512
3582	0.0285019
3594	0.0415974
3606	0.0747212
3618	0.135797
3630	0.211508
3642	0.205346
3654	0.166059
3666	0.117309
3678	0.0886971
3690	0.0619559
3702	0.0411572
3714	0.0297124
3726	0.0290521
3738	0.0298225
3750	0.0285019
3762	0.0325736
3774	0.0325736
3786	0.0309229
3798	0.0291622
3810	0.0242101
3822	0.0204686
3834	0.0221192
3846	0.0227795
3858	0.0202485
3870	0.0250905
3882	0.0187078
3894	0.0235498
3906	0.0189279
3918	0.02388
3930	0.0221192
3942	0.026411
3954	0.0237699
3966	0.0265211
