Infrared Spectrum: Oxirane, (bromomethyl)-
Formula: C 3 H 5 Br O
CAS: 3132-64-7
State: gas
Origin: Sadtler Research Labs Under US-EPA Contract
1/CM	ABSORBANCE
450	0
462	0.0122188
474	0.0148641
486	0.00193149
498	0.00205746
510	0.0026873
522	0.00214144
534	0.000797791
546	0.00361105
558	0.00348509
570	0.00264531
582	0.0049547
594	0.00755802
606	0.00995139
618	0.0132685
630	0.0188531
642	0.0959029
654	0.321342
666	0.380126
678	0.102285
690	0.0156199
702	0.0129746
714	0.00814587
726	0.00940554
738	0.0127227
750	0.0254453
762	0.0921239
774	0.125169
786	0.0896465
798	0.0961968
810	0.0684421
822	0.112656
834	0.269275
846	0.323987
858	0.150111
870	0.0904863
882	0.0563912
894	0.0560133
906	0.0570211
918	0.076168
930	0.102831
942	0.21196
954	0.22124
966	0.0932996
978	0.0332553
990	0.019021
1002	0.0221702
1014	0.0321216
1026	0.0446763
1038	0.0509327
1050	0.0453061
1062	0.0400155
1074	0.0403934
1086	0.0408973
1098	0.0340111
1110	0.0301061
1122	0.0375382
1134	0.0482873
1146	0.0408973
1158	0.0302321
1170	0.0543338
1182	0.0773437
1194	0.0683581
1206	0.123952
1218	0.282502
1230	0.259366
1242	0.0909902
1254	0.133735
1266	0.143812
1278	0.0824664
1290	0.0338851
1302	0.0186851
1314	0.0127647
1326	0.011421
1338	0.0121348
1350	0.011505
1362	0.0163757
1374	0.0242277
1386	0.0476155
1398	0.0901924
1410	0.0883029
1422	0.0542078
1434	0.0666785
1446	0.0821305
1458	0.0635713
1470	0.038
1482	0.0391757
1494	0.0369503
1506	0.030526
1518	0.018979
1530	0.0083978
1542	0.00873371
1554	0.00629835
1566	0.00671824
1578	0.00885968
1590	0.00377901
1602	0.00138564
1614	0.0175514
1626	0.0269149
1638	0.00999338
1650	0.00613039
1662	0.00424089
1674	0.00365304
1686	0.00348509
1698	0.00121768
1710	0.000461879
1722	0.0041989
1734	0.00978344
1746	0.00638233
1758	0.00235138
1770	0.00298122
1782	0.00193149
1794	0.00314918
1806	0.00319116
1818	0.00293923
1830	0.00327514
1842	0.00256133
1854	0.00264531
1866	0.00293923
1878	0.0030652
1890	0.00365304
1902	0.00369503
1914	0.00407293
1926	0.00403094
1938	0.00361105
1950	0.00352708
1962	0.0045768
1974	0.00550056
1986	0.0053326
1998	0.00461879
2010	0.0041989
2022	0.00411492
2034	0.0041989
2046	0.00499669
2058	0.0049547
2070	0.00440884
2082	0.00411492
2094	0.00365304
2106	0.00373702
2118	0.00356907
2130	0.00319116
2142	0.00394697
2154	0.00386299
2166	0.0045768
2178	0.00541658
2190	0.00516465
2202	0.00629835
2214	0.00642432
2226	0.00768399
2238	0.00995139
2250	0.0112111
2262	0.0123028
2274	0.0131006
2286	0.011631
2298	0.00873371
2310	0.00713813
2322	0.00554255
2334	0.00541658
2346	0.00386299
2358	0.00512266
2370	0.00529061
2382	0.00310719
2394	0.00172155
2406	0.00188951
2418	0.00239337
2430	0.00272929
2442	0.00247735
2454	0.00121768
2466	0.00163757
2478	0.00125967
2490	0.00155359
2502	0.00138564
2514	0.00146962
2526	0.00176354
2538	0.0023094
2550	0.00243536
2562	0.00235138
2574	0.00335912
2586	0.00348509
2598	0.00440884
2610	0.0060884
2622	0.00596244
2634	0.00436686
2646	0.00499669
2658	0.00646631
2670	0.00487072
2682	0.00298122
2694	0.00256133
2706	0.00180553
2718	0.00117569
2730	0.00184752
2742	0.00146962
2754	0.00125967
2766	0.00130166
2778	0.00125967
2790	0.000965747
2802	0.000503868
2814	0.000461879
2826	0.0015116
2838	0.0034431
2850	0.0068862
2862	0.0091536
2874	0.011589
2886	0.0125967
2898	0.0133525
2910	0.0260332
2922	0.0560973
2934	0.0750343
2946	0.0731868
2958	0.0794432
2970	0.112614
2982	0.139571
2994	0.154981
3006	0.180259
3018	0.171231
3030	0.144568
3042	0.135247
3054	0.18219
3066	0.16636
3078	0.0882189
3090	0.0332553
3102	0.00948951
3114	0.0026873
3126	0.0015116
3138	0.00134365
3150	0.0011337
3162	0.00146962
3174	0.000209945
3186	0.00188951
3198	0.00142763
3210	0.00176354
3222	0.00155359
3234	0.00138564
3246	0.00293923
3258	0.00134365
3270	0.00289724
3282	0.00172155
3294	0.00239337
3306	0.0023094
3318	0.00298122
3330	0.0026873
3342	0.00209945
3354	0.00264531
3366	0.00386299
3378	0.00281326
3390	0.00289724
3402	0.00314918
3414	0.0034431
3426	0.00348509
3438	0.00331713
3450	0.00377901
3462	0.00289724
3474	0.00449282
3486	0.00167956
3498	0.00256133
3510	0.00285525
3522	0.0030652
3534	0.00466078
3546	0.00461879
3558	0.00365304
3570	0.00600443
3582	0.0087757
3594	0.00634034
3606	0.00810388
3618	0.00885968
3630	0.0104972
3642	0.0060884
3654	0.00898565
3666	0.00818786
3678	0.00911161
3690	0.00780995
3702	0.00785194
3714	0.00680222
3726	0.00743205
3738	0.00663426
3750	0.00655028
3762	0.00319116
3774	0.00613039
3786	0.00352708
3798	0.00470277
3810	0.00596244
3822	0.00659227
3834	0.00617238
3846	0.00852377
3858	0.0106652
3870	0.00285525
3882	0.00894366
3894	0.00709614
3906	0.00898565
3918	0.0072641
3930	0.0145282
3942	0.00785194
3954	0.011295
3966	0.00743205
