Infrared Spectrum: EPIBROMOHYDRIN
Formula: C3 H5 Br O
CAS: 3132-64-7
State: LIQUID
Class: COBLENTZ
Instrument: PERKIN-ELMER
Sampling: TRANSMISSION
Path length: 0.0015 CM
Resolution: 4
Origin: STANDARD OIL OF OHIO
MICROMETERS	TRANSMITTANCE
2.034	0.948
2.06784	0.948
2.10167	0.948
2.13551	0.95
2.16934	0.95
2.20318	0.948
2.23701	0.924
2.27085	0.928
2.30468	0.926
2.33852	0.948
2.37235	0.938
2.40619	0.924
2.44002	0.931
2.47386	0.941
2.50769	0.95
2.54153	0.952
2.57536	0.95
2.6092	0.948
2.64303	0.945
2.67687	0.948
2.7107	0.945
2.74454	0.93
2.77837	0.887
2.81221	0.883
2.84604	0.882
2.87988	0.883
2.91371	0.901
2.94755	0.914
2.98138	0.928
3.01522	0.938
3.04905	0.947
3.08289	0.948
3.11672	0.948
3.15056	0.943
3.18439	0.931
3.21823	0.911
3.25206	0.819
3.2859	0.691
3.31973	0.549
3.35357	0.517
3.3874	0.655
3.42124	0.73
3.45507	0.796
3.48891	0.897
3.52274	0.914
3.55658	0.938
3.59041	0.962
3.62425	0.969
3.65808	0.972
3.69192	0.976
3.72575	0.979
3.75959	0.977
3.79342	0.97
3.82726	0.969
3.86109	0.965
3.89493	0.97
3.92876	0.976
3.9626	0.977
3.99643	0.976
4.03027	0.974
4.0641	0.974
4.09794	0.97
4.13177	0.964
4.16561	0.962
4.19944	0.964
4.23328	0.964
4.26711	0.965
4.30095	0.964
4.33478	0.955
4.36862	0.936
4.40245	0.916
4.43629	0.916
4.47012	0.938
4.50396	0.948
4.53779	0.95
4.57163	0.953
4.60546	0.957
4.6393	0.964
4.67313	0.965
4.70697	0.969
4.7408	0.969
4.77464	0.97
4.80847	0.97
4.84231	0.972
4.87614	0.972
4.90998	0.972
4.94381	0.972
4.97765	0.972
5.01148	0.967
5.04532	0.964
5.07915	0.967
5.11299	0.974
5.14682	0.977
5.18066	0.977
5.21449	0.977
5.24833	0.976
5.28216	0.981
5.316	0.981
5.34983	0.982
5.38367	0.977
5.4175	0.976
5.45134	0.976
5.48517	0.977
5.51901	0.979
5.55284	0.977
5.58668	0.977
5.62051	0.982
5.65435	0.984
5.68818	0.981
5.72202	0.981
5.75585	0.976
5.78969	0.965
5.82352	0.967
5.85736	0.974
5.89119	0.976
5.92503	0.977
5.95886	0.976
5.9927	0.97
6.02653	0.965
6.06037	0.957
6.0942	0.931
6.12804	0.923
6.16187	0.914
6.19571	0.914
6.22954	0.924
6.26338	0.945
6.29721	0.959
6.33105	0.965
6.36488	0.967
6.39872	0.957
6.43255	0.952
6.46639	0.948
6.50022	0.95
6.53406	0.948
6.56789	0.94
6.60173	0.897
6.63556	0.882
6.6694	0.883
6.70323	0.885
6.73707	0.819
6.7709	0.737
6.80474	0.781
6.83857	0.849
6.87241	0.851
6.90624	0.713
6.94008	0.58
6.97391	0.493
7.00775	0.383
7.04158	0.622
7.07542	0.81
7.10925	0.8
7.14309	0.619
7.17692	0.593
7.21076	0.624
7.24459	0.822
7.27843	0.88
7.31226	0.912
7.3461	0.93
7.37993	0.94
7.41377	0.948
7.4476	0.95
7.48144	0.95
7.51527	0.952
7.54911	0.95
7.58294	0.947
7.61678	0.941
7.65061	0.936
7.68445	0.935
7.71828	0.926
7.75212	0.909
7.78595	0.877
7.81979	0.827
7.85362	0.703
7.88746	0.488
7.92129	0.343
7.95513	0.307
7.98896	0.319
8.0228	0.576
8.05663	0.68
8.09047	0.687
8.1243	0.527
8.15814	0.283
8.19197	0.174
8.22581	0.196
8.25964	0.544
8.29348	0.726
8.32731	0.754
8.36115	0.735
8.39498	0.73
8.42882	0.732
8.46265	0.682
8.49649	0.708
8.53032	0.776
8.56416	0.834
8.59799	0.849
8.63183	0.853
8.66566	0.819
8.6995	0.767
8.73333	0.732
8.76717	0.687
8.801	0.616
8.83484	0.621
8.86867	0.764
8.90251	0.82
8.93634	0.851
8.97018	0.868
9.00401	0.877
9.03785	0.883
9.07168	0.885
9.10552	0.882
9.13935	0.878
9.17319	0.865
9.20702	0.834
9.24086	0.802
9.27469	0.8
9.30853	0.822
9.34236	0.849
9.3762	0.858
9.41003	0.848
9.44387	0.843
9.4777	0.856
9.51154	0.877
9.54537	0.885
9.57921	0.877
9.61304	0.839
9.64688	0.808
9.68071	0.824
9.71455	0.86
9.74838	0.873
9.78222	0.887
9.81605	0.897
9.84989	0.904
9.88372	0.909
9.91756	0.912
9.95139	0.914
9.98523	0.914
10.0191	0.916
10.0529	0.912
10.0867	0.906
10.1206	0.902
10.1544	0.902
10.1882	0.902
10.2221	0.901
10.2559	0.899
10.2897	0.889
10.3236	0.875
10.3574	0.86
10.3912	0.829
10.4251	0.773
10.4589	0.651
10.4928	0.462
10.5266	0.278
10.5604	0.278
10.5943	0.43
10.6281	0.612
10.6619	0.709
10.6958	0.755
10.7296	0.776
10.7634	0.769
10.7973	0.709
10.8311	0.605
10.8649	0.465
10.8988	0.317
10.9326	0.264
10.9664	0.295
11.0003	0.535
11.0341	0.675
11.068	0.732
11.1018	0.773
11.1356	0.79
11.1695	0.779
11.2033	0.706
11.2371	0.61
11.271	0.575
11.3048	0.621
11.3386	0.68
11.3725	0.709
11.4063	0.733
11.4401	0.761
11.474	0.773
11.5078	0.761
11.5416	0.706
11.5755	0.646
11.6093	0.621
11.6431	0.612
11.677	0.602
11.7108	0.546
11.7447	0.469
11.7785	0.348
11.8123	0.273
11.8462	0.276
11.88	0.334
11.9138	0.377
11.9477	0.383
11.9815	0.365
12.0153	0.365
12.0492	0.382
12.083	0.423
12.1168	0.488
12.1507	0.576
12.1845	0.646
12.2183	0.696
12.2522	0.735
12.286	0.778
12.3198	0.805
12.3537	0.829
12.3875	0.844
12.4214	0.853
12.4552	0.86
12.489	0.866
12.5229	0.866
12.5567	0.863
12.5905	0.856
12.6244	0.848
12.6582	0.824
12.692	0.795
12.7259	0.728
12.7597	0.679
12.7935	0.643
12.8274	0.631
12.8612	0.646
12.895	0.686
12.9289	0.728
12.9627	0.767
12.9965	0.784
13.0304	0.788
13.0642	0.766
13.0981	0.723
13.1319	0.677
13.1657	0.593
13.1996	0.513
13.2334	0.462
13.2672	0.5
13.3011	0.609
13.3349	0.709
13.3687	0.761
13.4026	0.784
13.4364	0.81
13.4702	0.834
13.5041	0.851
13.5379	0.861
13.5717	0.87
13.6056	0.875
13.6394	0.882
13.6732	0.885
13.7071	0.887
13.7409	0.889
13.7748	0.892
13.8086	0.892
13.8424	0.894
13.8763	0.894
13.9101	0.892
13.9439	0.892
13.9778	0.892
14.0116	0.892
14.0454	0.89
14.0793	0.889
14.1131	0.889
14.1469	0.887
14.1808	0.887
14.2146	0.887
14.2484	0.885
14.2823	0.885
14.3161	0.882
14.3499	0.882
14.3838	0.88
14.4176	0.877
14.4515	0.872
14.4853	0.868
14.5191	0.868
14.553	0.865
14.5868	0.861
14.6206	0.856
14.6545	0.853
14.6883	0.848
14.7221	0.841
14.756	0.834
14.7898	0.827
14.8236	0.819
14.8575	0.81
14.8913	0.8
14.9251	0.793
14.959	0.779
14.9928	0.754
15.0266	0.72
15.0605	0.675
15.0943	0.629
15.1282	0.585
15.162	0.551
15.1958	0.522
15.2297	0.5
15.2635	0.489
15.2973	0.481
15.3312	0.479
15.365	0.479
15.3988	0.479
