Infrared Spectrum: EPIBROMOHYDRIN
Formula: C3 H5 Br O
CAS: 3132-64-7
State: SOLUTION (10% IN CCl4 FOR 3800-1330, 10% IN CS2 FOR 1330-400 CM^-^1)
Class: COBLENTZ
Instrument: Not specified, most likely a prism, grating, or hybrid spectrometer.
Sampling: TRANSMISSION
Path length: 0.01 AND 0.01 CM
Resolution: 4
Origin: DOW CHEMICAL COMPANY
1/CM	TRANSMITTANCE
408.466	0.958
416.932	0.961
425.397	0.961
433.863	0.962
442.328	0.965
450.794	0.967
459.26	0.971
467.725	0.991
476.191	1.019
484.657	1.032
493.122	1.037
501.588	1.049
510.053	1.053
518.519	1.054
526.985	1.053
535.45	1.052
543.916	1.05
552.381	1.05
560.847	1.052
569.313	1.05
577.778	1.05
586.244	1.046
594.709	1.04
603.175	1.037
611.641	1.032
620.106	1.02
628.572	0.988
637.038	0.898
645.503	0.475
653.969	0.341
662.434	0.557
670.9	0.913
679.366	0.98
687.831	1.007
696.297	1.01
704.762	1.016
713.228	1.014
721.694	1.014
730.159	1.011
738.625	1.007
747.09	0.989
755.556	0.8911
764.022	0.6868
772.487	0.936
780.953	0.8081
789.419	0.8059
797.884	0.94
806.35	0.94
814.815	0.907
823.281	0.751
831.747	0.375
840.212	0.4051
848.678	0.5077
857.143	0.564
865.609	0.7259
874.075	0.8
882.54	0.796
891.006	0.744
899.471	0.903
907.937	0.864
916.403	0.416
924.868	0.8059
933.334	0.876
941.8	0.7311
950.265	0.4097
958.731	0.879
967.196	0.958
975.662	0.977
984.128	0.985
992.593	0.982
1001.06	0.994
1009.52	0.989
1017.99	0.979
1026.46	0.939
1034.92	0.884
1043.39	0.955
1051.85	0.953
1060.32	0.949
1068.78	0.956
1077.25	0.906
1085.71	0.949
1094.18	0.977
1102.65	0.979
1111.11	0.976
1119.58	0.958
1128.04	0.849
1136.51	0.878
1144.97	0.882
1153.44	0.956
1161.91	0.952
1170.37	0.903
1178.84	0.777
1187.3	0.884
1195.77	0.897
1204.23	0.875
1212.7	0.4993
1221.16	0.5259
1229.63	0.876
1238.1	0.9
1246.56	0.817
1255.03	0.603
1263.49	0.5779
1271.96	0.9149
1280.42	0.961
1288.89	0.977
1297.36	0.988
1305.82	0.989
1314.29	0.992
1322.75	0.994
1331.22	0.997
1339.68	0.989
1348.15	0.983
1356.61	0.97
1365.08	0.947
1373.55	0.933
1382.01	0.921
1390.48	0.858
1398.94	0.793
1407.41	0.901
1415.87	0.921
1424.34	0.86
1432.8	0.7618
1441.27	0.7871
1449.74	0.8459
1458.2	0.952
1466.67	0.936
1475.13	0.87
1483.6	0.829
1492.06	0.875
1500.53	0.855
1509	0.803
1517.46	0.7511
1525.93	0.708
1534.39	0.644
1542.86	0.533
1551.32	0.502
1559.79	0.551
1568.25	0.634
1576.72	0.701
1585.19	0.717
1593.65	0.781
1602.12	0.8719
1610.58	0.934
1619.05	0.953
1627.51	0.979
1635.98	0.982
1644.45	0.983
1652.91	0.991
1661.38	0.988
1669.84	1.001
1678.31	0.995
1686.77	1.001
1695.24	1.002
1703.7	0.997
1712.17	1.005
1720.64	1.002
1729.1	0.997
1737.57	1.007
1746.03	1.005
1754.5	1.005
1762.96	1.004
1771.43	1.004
1779.9	1.002
1788.36	1.002
1796.83	1.002
1805.29	0.998
1813.76	0.995
1822.22	0.994
1830.69	1.002
1839.15	0.994
1847.62	0.995
1856.09	1.002
1864.55	0.998
1873.02	1.002
1881.48	1.002
1889.95	1.001
1898.41	1.002
1906.88	1
1915.34	1.002
1923.81	0.997
1932.28	1.002
1940.74	1.004
1949.21	1.004
1957.67	1.0259
1966.14	0.998
1974.6	0.994
1983.07	0.994
1991.54	0.997
2000	0.995
2008.47	0.992
2016.93	0.9891
2025.4	1.001
2033.86	1.001
2042.33	1.002
2050.79	1.002
2059.26	1.002
2067.73	1.002
2076.19	1.002
2084.66	1.002
2093.12	1.002
2101.59	1.002
2110.05	1.002
2118.52	1.002
2126.99	1.001
2135.45	0.9987
2143.92	0.998
2152.38	0.995
2160.85	0.994
2169.31	0.994
2177.78	0.994
2186.24	0.992
2194.71	0.992
2203.18	0.991
2211.64	0.986
2220.11	0.982
2228.57	0.98
2237.04	0.985
2245.5	0.9822
2253.97	0.967
2262.43	0.962
2270.9	0.9549
2279.37	0.9515
2287.83	0.9595
2296.3	0.959
2304.76	0.9654
2313.23	0.9687
2321.69	0.9777
2330.16	0.9958
2338.63	0.9905
2347.09	0.9826
2355.56	0.9923
2364.02	1.0015
2372.49	0.974
2380.95	0.99
2389.42	0.992
2397.88	0.9929
2406.35	0.989
2414.82	0.989
2423.28	0.989
2431.75	0.9897
2440.21	0.9942
2448.68	1.0006
2457.14	0.998
2465.61	0.995
2474.08	0.995
2482.54	0.997
2491.01	0.998
2499.47	0.997
2507.94	0.997
2516.4	0.997
2524.87	0.998
2533.33	0.998
2541.8	0.997
2550.27	0.995
2558.73	0.995
2567.2	0.997
2575.66	0.995
2584.13	0.9941
2592.59	0.988
2601.06	0.986
2609.53	0.9867
2617.99	0.989
2626.46	0.991
2634.92	0.988
2643.39	0.9874
2651.85	0.9845
2660.32	0.9912
2668.78	0.995
2677.25	0.994
2685.72	0.992
2694.18	0.994
2702.65	0.9958
2711.11	0.994
2719.58	0.9914
2728.04	0.991
2736.51	0.991
2744.97	0.991
2753.44	0.989
2761.91	0.991
2770.37	0.9901
2778.84	0.989
2787.3	0.988
2795.77	0.989
2804.23	0.986
2812.7	0.988
2821.17	0.9844
2829.63	0.9797
2838.1	0.9763
2846.56	0.98
2855.03	0.9794
2863.49	0.958
2871.96	0.9743
2880.42	0.9764
2888.89	0.9728
2897.36	0.9662
2905.82	0.9516
2914.29	0.8854
2922.75	0.794
2931.22	0.8815
2939.68	0.925
2948.15	0.9157
2956.62	0.8638
2965.08	0.7577
2973.55	0.8166
2982.01	0.826
2990.48	0.7403
2998.94	0.595
3007.41	0.7205
3015.87	0.8113
3024.34	0.8521
3032.81	0.8805
3041.27	0.858
3049.74	0.7798
3058.2	0.719
3066.67	0.7914
3075.13	0.9279
3083.6	0.9616
3092.06	0.9751
3100.53	0.9821
3109	0.985
3117.46	0.988
3125.93	0.989
3134.39	0.989
3142.86	0.992
3151.32	0.994
3159.79	0.995
3168.26	0.997
3176.72	0.998
3185.19	1
3193.65	1
3202.12	1.0008
3210.58	1.001
3219.05	1.001
3227.51	1.001
3235.98	1.002
3244.45	1.002
3252.91	1.0047
3261.38	1.005
3269.84	1.005
3278.31	1.005
3286.77	1.005
3295.24	1.005
3303.71	1.005
3312.17	1.007
3320.64	1.008
3329.1	1.008
3337.57	1.008
3346.03	1.008
3354.5	1.0104
3362.96	1.013
3371.43	1.0133
3379.9	1.014
3388.36	1.016
3396.83	1.013
3405.29	1.013
3413.76	1.011
3422.22	1.01
3430.69	1.008
3439.15	1.0079
3447.62	1.007
3456.09	1.005
3464.55	1.004
3473.02	1.004
3481.48	1.002
3489.95	1.002
3498.41	1.001
3506.88	1.001
3515.35	1.001
3523.81	1.001
3532.28	1.001
3540.74	1.001
3549.21	1.002
3557.67	1.002
3566.14	1.004
3574.6	1.0012
3583.07	1.001
3591.54	1
3600	0.997
3608.47	0.995
3616.93	0.9942
3625.4	0.9963
3633.86	1.001
3642.33	1.0004
3650.8	0.9982
3659.26	1.001
3667.73	0.9981
3676.19	1.001
3684.66	1.002
3693.12	1.004
3701.59	1
3710.05	1.001
3718.52	1.004
3726.99	1.002
3735.45	1.002
3743.92	1
3752.38	0.998
3760.85	0.995
3769.31	0.997
3777.78	0.9972
3786.25	0.9994
