Infrared Spectrum: SULFIDE, METHYL-
Formula: C2 H6 S
CAS: 75-18-3
State: LIQUID
Boiling point: 37-38 C
Class: COBLENTZ III
Instrument: BAIRD (GRATING)
Instrument parameters: NaCl PRISM
Sampling: TRANSMISSION
Path length: 0.005 CM
Resolution: 2
Origin: WYANDOTTE CHEMICALS CORP.
1/CM	TRANSMITTANCE
4000	0.8392
3991	0.8394
3982	0.8396
3973	0.8405
3964	0.842
3955	0.8436
3946	0.8452
3937	0.8467
3928	0.8483
3919	0.8501
3910	0.8521
3901	0.8539
3892	0.8556
3883	0.8568
3874	0.8578
3865	0.8581
3856	0.8583
3847	0.8585
3838	0.8588
3829	0.859
3820	0.8592
3811	0.8592
3802	0.8591
3793	0.859
3784	0.859
3775	0.8589
3766	0.8589
3757	0.8588
3748	0.8587
3739	0.8588
3730	0.8589
3721	0.8589
3712	0.859
3703	0.859
3694	0.8591
3685	0.8592
3676	0.8592
3667	0.8592
3658	0.859
3649	0.8587
3640	0.8585
3631	0.8582
3622	0.858
3613	0.8578
3604	0.8575
3595	0.8573
3586	0.8574
3577	0.8575
3568	0.8577
3559	0.8578
3550	0.8582
3541	0.8584
3532	0.8585
3523	0.8592
3514	0.8599
3505	0.861
3496	0.8625
3487	0.8642
3478	0.8658
3469	0.8664
3460	0.8668
3451	0.8673
3442	0.8677
3433	0.8683
3424	0.8691
3415	0.8698
3406	0.8704
3397	0.8709
3388	0.8712
3379	0.8715
3370	0.8718
3361	0.8721
3352	0.8724
3343	0.8721
3334	0.8718
3325	0.8703
3316	0.8678
3307	0.8653
3298	0.8607
3289	0.8563
3280	0.8544
3271	0.8535
3262	0.8527
3253	0.8518
3244	0.8508
3235	0.8498
3226	0.8471
3217	0.8378
3208	0.8189
3199	0.8083
3190	0.8003
3181	0.7934
3172	0.7882
3163	0.784
3154	0.7806
3145	0.7776
3136	0.7758
3127	0.7741
3118	0.7718
3109	0.7692
3100	0.7649
3091	0.7598
3082	0.7478
3073	0.7338
3064	0.7185
3055	0.6339
3046	0.555
3037	0.4805
3028	0.4055
3019	0.33
3010	0.2542
3001	0.1778
2992	0.101
2983	0.0714
2974	0.0716
2965	0.0721
2956	0.0706
2947	0.0659
2938	0.0614
2929	0.0706
2920	0.109
2911	0.1475
2902	0.1863
2893	0.2139
2884	0.2162
2875	0.2148
2866	0.2089
2857	0.206
2848	0.2058
2839	0.2234
2830	0.3891
2821	0.7111
2812	0.7397
2803	0.7581
2794	0.776
2785	0.7937
2776	0.8101
2767	0.8221
2758	0.8342
2749	0.8433
2740	0.8518
2731	0.8606
2722	0.8675
2713	0.8742
2704	0.8801
2695	0.8853
2686	0.8894
2677	0.8924
2668	0.8956
2659	0.8985
2650	0.9006
2641	0.9028
2632	0.905
2623	0.9071
2614	0.9088
2605	0.9106
2596	0.9124
2587	0.9142
2578	0.9159
2569	0.9175
2560	0.9193
2551	0.921
2542	0.9227
2533	0.9241
2524	0.9255
2515	0.9271
2506	0.928
2497	0.9287
2488	0.9293
2479	0.9288
2470	0.9281
2461	0.9256
2452	0.9228
2443	0.9198
2434	0.9193
2425	0.9194
2416	0.9201
2407	0.9206
2398	0.9206
2389	0.9192
2380	0.9168
2371	0.9144
2362	0.9133
2353	0.9138
2344	0.9158
2335	0.9177
2326	0.9195
2317	0.9211
2308	0.9228
2299	0.9241
2290	0.9253
2281	0.9264
2272	0.9271
2263	0.9281
2254	0.9275
2245	0.9264
2236	0.9249
2227	0.9234
2218	0.9223
2209	0.9215
2200	0.9211
2191	0.9211
2182	0.9218
2173	0.9234
2164	0.9268
2155	0.9309
2146	0.9348
2137	0.9385
2128	0.9424
2119	0.9441
2110	0.9454
2101	0.9465
2092	0.9471
2083	0.9475
2074	0.948
2065	0.9485
2056	0.9489
2047	0.9493
2038	0.9495
2029	0.9497
2020	0.9499
2011	0.95
2002	0.947
1993	0.9418
1984	0.938
1975	0.938
1966	0.941
1957	0.944
1948	0.9462
1939	0.9475
1930	0.9488
1921	0.9499
1912	0.9505
1903	0.9511
1894	0.9521
1885	0.9536
1876	0.955
1867	0.9564
1858	0.9582
1849	0.9601
1840	0.9614
1831	0.9618
1822	0.962
1813	0.9618
1804	0.9617
1795	0.9615
1786	0.961
1777	0.9601
1768	0.9588
1759	0.9575
1750	0.9549
1741	0.9521
1732	0.9489
1723	0.946
1714	0.9447
1705	0.9435
1696	0.9415
1687	0.9393
1678	0.9339
1669	0.9251
1660	0.9175
1651	0.8983
1642	0.8742
1633	0.854
1624	0.8363
1615	0.8249
1606	0.8192
1597	0.8251
1588	0.8336
1579	0.84
1570	0.8447
1561	0.8473
1552	0.8488
1543	0.8487
1534	0.846
1525	0.8366
1516	0.8161
1507	0.7828
1498	0.6867
1489	0.6411
1480	0.4898
1471	0.4187
1462	0.2905
1453	0.1107
1444	0.0622
1435	0.0541
1426	0.111
1417	0.3287
1408	0.5008
1399	0.6132
1390	0.6792
1381	0.7214
1372	0.7472
1363	0.7642
1354	0.77
1345	0.7631
1336	0.6664
1327	0.6338
1318	0.3286
1309	0.247
1300	0.6254
1291	0.7456
1282	0.8005
1273	0.8349
1264	0.8506
1255	0.8615
1246	0.886
1237	0.8959
1228	0.9024
1219	0.8918
1210	0.8918
1201	0.9023
1192	0.9143
1183	0.9249
1174	0.9333
1165	0.9427
1156	0.9463
1147	0.9508
1138	0.9562
1129	0.962
1120	0.9678
1111	0.9728
1102	0.9736
1093	0.9553
1084	0.9175
1075	0.8689
1066	0.8178
1057	0.7521
1048	0.6249
1039	0.3462
1030	0.1583
1021	0.2419
1012	0.4338
1003	0.5658
994	0.6038
985	0.5238
976	0.3045
967	0.3316
958	0.5847
949	0.7151
940	0.8065
931	0.8454
922	0.8568
913	0.8564
904	0.8164
895	0.8366
886	0.8628
877	0.8905
868	0.9125
859	0.9287
850	0.9406
841	0.9428
832	0.941
823	0.9356
814	0.9408
805	0.944
796	0.9471
787	0.9507
778	0.9518
769	0.9507
760	0.9481
751	0.937
742	0.8984
733	0.9043
724	0.9085
715	0.9041
706	0.8731
697	0.7937
688	0.5665
679	0.711
670	0.8268
661	0.8697
652	0.8915
643	0.8927
634	0.8946
625	0.8811
