Infrared Spectrum: Ethanol, 2-mercapto-
Formula: C 2 H 6 O S
CAS: 60-24-2
State: gas
Origin: Sadtler Research Labs Under US-EPA Contract
1/CM	ABSORBANCE
450	0.0146549
462	0.0254425
474	0.0304292
486	0.0186748
498	0.00839602
510	0.0103297
522	0.00442699
534	0.00437611
546	0.00417257
558	0.000865045
570	0.00259513
582	0.00284956
594	0.00228983
606	0.00300221
618	0.00412168
630	0.00564823
642	0.0117036
654	0.0153673
666	0.0175044
678	0.015062
690	0.00519027
702	0.00457965
714	0.00854868
726	0.0108385
738	0.0135863
750	0.0190819
762	0.0205575
774	0.0180642
786	0.00625885
798	0.00524115
810	0.00356195
822	0.00228983
834	0.00330752
846	0.00513938
858	0.00921018
870	0.0136881
882	0.0186239
894	0.0244757
906	0.0360266
918	0.0489514
930	0.0608585
942	0.0578054
954	0.0493584
966	0.0382146
978	0.0399956
990	0.0571439
1002	0.0903718
1014	0.137797
1026	0.237175
1038	0.362301
1050	0.475571
1062	0.497706
1074	0.419903
1086	0.279359
1098	0.11958
1110	0.0602987
1122	0.0435067
1134	0.0400974
1146	0.0407589
1158	0.049104
1170	0.0668629
1182	0.0744448
1194	0.0768363
1206	0.0663032
1218	0.0591793
1230	0.0549558
1242	0.0533784
1254	0.059281
1266	0.0768363
1278	0.0977501
1290	0.100396
1302	0.0937811
1314	0.0706793
1326	0.0676771
1338	0.0758187
1350	0.07877
1362	0.0923563
1374	0.127925
1386	0.141053
1398	0.130571
1410	0.0970886
1422	0.0763275
1434	0.0706793
1446	0.0494093
1458	0.0379602
1470	0.0339912
1482	0.0260531
1494	0.0163341
1506	0.0108385
1518	0.00636062
1530	0.00559735
1542	0.00320575
1554	0.00457965
1566	0.00366372
1578	0.00437611
1590	0.00315487
1602	0.00279868
1614	0.0020354
1626	0.00239159
1638	0.0010177
1650	0.00183186
1662	0.00050885
1674	0.00198452
1686	0.00111947
1698	0.00295133
1710	0.00401991
1722	0.00615708
1734	0.00768363
1746	0.00651328
1758	0.00671682
1770	0.00559735
1782	0.00279868
1794	0.00295133
1806	0.00239159
1818	0.00198452
1830	0.00173009
1842	0.00142478
1854	0.00198452
1866	0.00157743
1878	0.00137389
1890	0.00162832
1902	0.00147566
1914	0.00147566
1926	0.00167921
1938	0.00223894
1950	0.00274779
1962	0.0030531
1974	0.00284956
1986	0.0026969
1998	0.00234071
2010	0.00239159
2022	0.00239159
2034	0.00279868
2046	0.00330752
2058	0.00356195
2070	0.00315487
2082	0.0026969
2094	0.00264602
2106	0.00284956
2118	0.00320575
2130	0.00346018
2142	0.0030531
2154	0.00193363
2166	0.00127213
2178	0.00106858
2190	0.00127213
2202	0.00142478
2214	0.00142478
2226	0.00132301
2238	0.0010177
2250	0.000865045
2262	0.000763275
2274	0.000457965
2286	0.000763275
2298	0.000865045
2310	0.00071239
2322	0
2334	0
2346	0
2358	0
2370	0
2382	0.00152655
2394	0.00157743
2406	0.00193363
2418	0.00183186
2430	0.00228983
2442	0.00208628
2454	0.00254425
2466	0.0026969
2478	0.00193363
2490	0.00147566
2502	0.00127213
2514	0.00152655
2526	0.00127213
2538	0.00137389
2550	0.00198452
2562	0.00290044
2574	0.00488496
2586	0.00910841
2598	0.00829426
2610	0.00681859
2622	0.00437611
2634	0.00361284
2646	0.00356195
2658	0.00513938
2670	0.0064624
2682	0.00773452
2694	0.00931196
2706	0.0103805
2718	0.0118053
2730	0.0129757
2742	0.0138916
2754	0.0145022
2766	0.0144005
2778	0.014604
2790	0.0145022
2802	0.016792
2814	0.0215752
2826	0.0303783
2838	0.045135
2850	0.0728164
2862	0.118715
2874	0.173263
2886	0.174281
2898	0.152808
2910	0.1466
2922	0.174688
2934	0.22883
2946	0.257275
2958	0.243637
2970	0.200131
2982	0.141511
2994	0.0820266
3006	0.0456438
3018	0.0235089
3030	0.0134336
3042	0.00783629
3054	0.00513938
3066	0.00412168
3078	0.00325664
3090	0.00396903
3102	0.00213717
3114	0.00188274
3126	0.00152655
3138	0.00127213
3150	0.00167921
3162	0.00162832
3174	0.00122124
3186	0.00223894
3198	0.0026969
3210	0.00234071
3222	0.00178097
3234	0.00162832
3246	0.00162832
3258	0.00122124
3270	0.00122124
3282	0.00081416
3294	0.000661505
3306	0.00040708
3318	0.000152655
3330	0.00050885
3342	0.000457965
3354	0.00081416
3366	0.00061062
3378	0.00071239
3390	0.00081416
3402	0.00091593
3414	0.00132301
3426	0.00381637
3438	0.00463053
3450	0.00513938
3462	0.00452876
3474	0.00478319
3486	0.00417257
3498	0.00330752
3510	0.00244248
3522	0.00295133
3534	0.00259513
3546	0.00463053
3558	0.00819248
3570	0.0184204
3582	0.0422345
3594	0.0518009
3606	0.0561262
3618	0.0466107
3630	0.0448297
3642	0.0440664
3654	0.0631483
3666	0.0726638
3678	0.0701704
3690	0.0401991
3702	0.0198451
3714	0.0118053
3726	0.00865045
3738	0.00961726
3750	0.00488496
3762	0.00524115
3774	0.0037146
3786	0.00228983
3798	0.00167921
3810	0.00050885
3822	0.00106858
3834	0.00162832
3846	0.00081416
3858	0.00249336
3870	0.00284956
3882	0.000457965
3894	0.00152655
3906	0.00132301
3918	0.00132301
3930	0.00157743
3942	0.00157743
3954	0.000763275
3966	0.00208628
