Infrared Spectrum: FORMIC ACID, 2-PROPYL ESTER
Formula: C4 H8 O2
CAS: 625-55-8
State: SOLUTION, SALTED (20% CCl4 FOR 3800-1333, 20% CS2 FOR 1333-450 CM^-^1)
Class: COBLENTZ III
Instrument: Not specified, most likely a prism, grating, or hybrid spectrometer.
Sampling: TRANSMISSION
Path length: 0.011 CM, 0.011 CM
Resolution: 4
Origin: DOW CHEMICAL COMPANY
1/CM	TRANSMITTANCE
453.303	0.868
462.415	0.877
471.526	0.888
480.638	0.888
489.75	0.89
498.861	0.921
507.973	0.959
517.085	0.978
526.196	0.982
535.308	0.985
544.42	0.992
553.531	0.989
562.643	0.985
571.755	0.98
580.866	0.984
589.978	0.996
599.09	0.998
608.201	0.991
617.313	0.978
626.425	0.987
635.536	0.966
644.648	0.9201
653.76	0.923
662.871	0.925
671.983	0.937
681.095	0.943
690.206	0.964
699.318	0.96
708.43	0.96
717.541	0.962
726.653	0.962
735.765	0.962
744.876	0.96
753.988	0.953
763.1	0.962
772.211	0.957
781.323	0.943
790.435	0.946
799.546	0.948
808.658	0.936
817.77	0.898
826.881	0.6929
835.993	0.913
845.105	0.898
854.216	0.813
863.328	0.79
872.44	0.824
881.551	0.856
890.663	0.902
899.775	0.909
908.886	0.801
917.998	0.898
927.11	0.934
936.221	0.934
945.333	0.93
954.445	0.891
963.556	0.95
972.668	0.957
981.78	0.959
990.891	0.959
1000	0.959
1009.11	0.953
1018.23	0.921
1027.34	0.955
1036.45	0.95
1045.56	0.939
1054.67	0.929
1063.78	0.9
1072.9	0.879
1082.01	0.891
1091.12	0.852
1100.23	0.6221
1109.34	0.313
1118.45	0.705
1127.57	0.833
1136.68	0.826
1145.79	0.7321
1154.9	0.76
1164.01	0.732
1173.12	0.553
1182.24	0.0738
1191.35	0.031
1200.46	0.2739
1209.57	0.631
1218.68	0.757
1227.79	0.797
1236.91	0.833
1246.02	0.888
1255.13	0.906
1264.24	0.92
1273.35	0.929
1282.46	0.937
1291.58	0.941
1300.69	0.943
1309.8	0.945
1318.91	0.943
1328.02	0.92
1337.13	0.888
1346.25	0.867
1355.36	0.907
1364.47	0.923
1373.58	0.8311
1382.69	0.6909
1391.8	0.728
1400.92	0.888
1410.03	0.921
1419.14	0.925
1428.25	0.929
1437.36	0.923
1446.47	0.891
1455.59	0.783
1464.7	0.842
1473.81	0.785
1482.92	0.867
1492.03	0.847
1501.14	0.8289
1510.26	0.76
1519.37	0.721
1528.48	0.67
1537.59	0.576
1546.7	0.475
1555.81	0.482
1564.93	0.544
1574.04	0.631
1583.15	0.661
1592.26	0.707
1601.37	0.79
1610.48	0.868
1619.6	0.909
1628.71	0.927
1637.82	0.952
1646.93	0.952
1656.04	0.921
1665.15	0.9
1674.27	0.874
1683.38	0.8169
1692.49	0.78
1701.6	0.721
1710.71	0.6089
1719.82	0.0579
1728.94	0.023
1738.05	0.3509
1747.16	0.703
1756.27	0.79
1765.38	0.867
1774.49	0.907
1783.61	0.923
1792.72	0.932
1801.83	0.936
1810.94	0.941
1820.05	0.943
1829.16	0.946
1838.28	0.948
1847.39	0.948
1856.5	0.948
1865.61	0.95
1874.72	0.952
1883.83	0.953
1892.95	0.953
1902.06	0.953
1911.17	0.952
1920.28	0.95
1929.39	0.95
1938.5	0.953
1947.62	0.953
1956.73	0.953
1965.84	0.955
1974.95	0.952
1984.06	0.952
1993.17	0.945
2002.29	0.936
2011.4	0.925
2020.51	0.932
2029.62	0.9459
2038.73	0.952
2047.84	0.953
2056.96	0.953
2066.07	0.953
2075.18	0.9549
2084.29	0.955
2093.4	0.955
2102.51	0.9568
2111.63	0.957
2120.74	0.957
2129.85	0.959
2138.96	0.959
2148.07	0.959
2157.18	0.959
2166.3	0.959
2175.41	0.959
2184.52	0.959
2193.63	0.957
2202.74	0.957
2211.85	0.9554
2220.97	0.955
2230.08	0.953
2239.19	0.952
2248.3	0.952
2257.41	0.9485
2266.52	0.946
2275.64	0.9367
2284.75	0.9293
2293.86	0.9255
2302.97	0.9265
2312.08	0.929
2321.19	0.929
2330.31	0.93
2339.42	0.93
2348.53	0.9293
2357.64	0.929
2366.75	0.9236
2375.86	0.925
2384.98	0.9333
2394.09	0.9383
2403.2	0.9449
2412.31	0.9493
2421.42	0.95
2430.53	0.95
2439.65	0.95
2448.76	0.95
2457.87	0.952
2466.98	0.952
2476.09	0.952
2485.2	0.952
2494.32	0.952
2503.43	0.95
2512.54	0.948
2521.65	0.948
2530.76	0.9469
2539.87	0.945
2548.99	0.946
2558.1	0.946
2567.21	0.948
2576.32	0.949
2585.43	0.949
2594.54	0.951
2603.66	0.952
2612.77	0.95
2621.88	0.95
2630.99	0.952
2640.1	0.948
2649.21	0.95
2658.33	0.9512
2667.44	0.95
2676.55	0.9472
2685.66	0.945
2694.77	0.946
2703.88	0.9456
2713	0.941
2722.11	0.9345
2731.22	0.9257
2740.33	0.932
2749.44	0.936
2758.55	0.9383
2767.67	0.937
2776.78	0.937
2785.89	0.937
2795	0.937
2804.11	0.937
2813.22	0.934
2822.34	0.9314
2831.45	0.929
2840.56	0.925
2849.67	0.9195
2858.78	0.913
2867.89	0.896
2877.01	0.8659
2886.12	0.829
2895.23	0.82
2904.34	0.6954
2913.45	0.7116
2922.56	0.6942
2931.68	0.6523
2940.79	0.7
2949.9	0.774
2959.01	0.828
2968.12	0.7906
2977.23	0.7011
2986.35	0.462
2995.46	0.5408
3004.57	0.7899
3013.68	0.8901
3022.79	0.9117
3031.9	0.9252
3041.02	0.9302
3050.13	0.932
3059.24	0.9321
3068.35	0.934
3077.46	0.936
3086.57	0.937
3095.69	0.937
3104.8	0.929
3113.91	0.937
3123.02	0.941
3132.13	0.941
3141.24	0.941
3150.36	0.943
3159.47	0.941
3168.58	0.941
3177.69	0.941
3186.8	0.943
3195.91	0.946
3205.03	0.95
3214.14	0.953
3223.25	0.955
3232.36	0.957
3241.47	0.9588
3250.58	0.964
3259.7	0.966
3268.81	0.969
3277.92	0.973
3287.03	0.976
3296.14	0.98
3305.25	0.982
3314.37	0.982
3323.48	0.984
3332.59	0.9842
3341.7	0.9848
3350.81	0.985
3359.92	0.987
3369.04	0.9918
3378.15	0.9976
3387.26	0.998
3396.37	0.998
3405.48	0.998
3414.59	0.9912
3423.71	0.977
3432.82	0.9635
3441.93	0.959
3451.04	0.9669
3460.15	0.975
3469.26	0.976
3478.38	0.976
3487.49	0.9753
3496.6	0.975
3505.71	0.9716
3514.82	0.968
3523.93	0.9703
3533.05	0.968
3542.16	0.968
3551.27	0.9723
3560.38	0.971
3569.49	0.9698
3578.6	0.968
3587.72	0.9672
3596.83	0.9742
3605.94	0.9718
3615.05	0.968
3624.16	0.957
3633.27	0.9688
3642.39	0.9811
3651.5	0.9846
3660.61	0.987
3669.72	0.9879
3678.83	0.987
3687.94	0.989
3697.06	0.991
3706.17	0.9915
3715.28	0.992
3724.39	0.993
3733.5	1
3742.61	1
3751.73	1
3760.84	1
3769.95	1
3779.06	1
3788.17	1
