Infrared Spectrum: Formic acid, 1-methylethyl ester
Formula: C 4 H 8 O 2
CAS: 625-55-8
State: gas
Origin: Sadtler Research Labs Under US-EPA Contract
1/CM	ABSORBANCE
450	0
462	0.0291162
474	0.030236
486	0.0309826
498	0.0496468
510	0.0272497
522	0.0222104
534	0.0179176
546	0.0175443
558	0.017731
570	0.0197841
582	0.0216505
594	0.0201573
606	0.022397
618	0.0233303
630	0.0253833
642	0.0235169
654	0.0209039
666	0.0207173
678	0.0169844
690	0.0173577
702	0.0171711
714	0.0175443
726	0.015118
738	0.0164245
750	0.0220238
762	0.0199707
774	0.020344
786	0.0356486
798	0.0393815
810	0.0645781
822	0.0903347
834	0.0681243
846	0.0347154
858	0.0201573
870	0.0194108
882	0.0268764
894	0.0496468
906	0.067751
918	0.0621518
930	0.0440475
942	0.0397547
954	0.0391948
966	0.0352753
978	0.0266898
990	0.0227703
1002	0.0216505
1014	0.0209039
1026	0.022397
1038	0.0261299
1050	0.0317291
1062	0.0414345
1074	0.0621518
1086	0.129343
1098	0.294334
1110	0.406506
1122	0.392881
1134	0.274737
1146	0.283323
1158	0.468285
1170	1.23818
1182	1.86642
1194	1.59523
1206	0.365632
1218	0.0817492
1230	0.0634583
1242	0.0565525
1254	0.0498334
1266	0.0418078
1278	0.0347154
1290	0.0285562
1302	0.0268764
1314	0.0306093
1326	0.040128
1338	0.0640182
1350	0.0765232
1362	0.0978004
1374	0.150247
1386	0.195601
1398	0.151367
1410	0.0608453
1422	0.0356486
1434	0.0423677
1446	0.0546861
1458	0.0823091
1470	0.0778297
1482	0.0712972
1494	0.0518865
1506	0.0416212
1518	0.0317291
1530	0.027623
1542	0.032849
1554	0.0266898
1566	0.0244501
1578	0.0242635
1590	0.0197841
1602	0.0181043
1614	0.0199707
1626	0.02501
1638	0.0300494
1650	0.0378883
1662	0.0341555
1674	0.0395681
1686	0.0500201
1698	0.0744702
1710	0.107319
1722	0.306093
1734	1.21243
1746	1.40728
1758	1.25087
1770	0.246367
1782	0.105639
1794	0.097987
1806	0.0444208
1818	0.0274364
1830	0.0248234
1842	0.0231436
1854	0.0188508
1866	0.0205306
1878	0.0182909
1890	0.0194108
1902	0.0188508
1914	0.0214638
1926	0.0225837
1938	0.022397
1950	0.0216505
1962	0.022397
1974	0.02501
1986	0.0306093
1998	0.0358353
2010	0.0321024
2022	0.0214638
2034	0.0164245
2046	0.0160512
2058	0.0158646
2070	0.0160512
2082	0.0186642
2094	0.0186642
2106	0.0169844
2118	0.0160512
2130	0.0160512
2142	0.0153046
2154	0.015118
2166	0.0156779
2178	0.0153046
2190	0.0154913
2202	0.0154913
2214	0.0154913
2226	0.015118
2238	0.0143714
2250	0.0153046
2262	0.0156779
2274	0.0164245
2286	0.0175443
2298	0.0188508
2310	0.0197841
2322	0.0225837
2334	0.02501
2346	0.027623
2358	0.0332223
2370	0.0154913
2382	0.0121317
2394	0.0139981
2406	0.015118
2418	0.0141848
2430	0.0138115
2442	0.0132516
2454	0.0132516
2466	0.0130649
2478	0.0138115
2490	0.0138115
2502	0.0136249
2514	0.0145581
2526	0.015118
2538	0.0147447
2550	0.0154913
2562	0.0149314
2574	0.0143714
2586	0.0121317
2598	0.0111985
2610	0.0126917
2622	0.0128783
2634	0.0149314
2646	0.0149314
2658	0.0164245
2670	0.0162379
2682	0.0156779
2694	0.0143714
2706	0.0162379
2718	0.0209039
2730	0.0227703
2742	0.0210905
2754	0.0197841
2766	0.0184776
2778	0.0175443
2790	0.0169844
2802	0.0173577
2814	0.0181043
2826	0.0214638
2838	0.0240768
2850	0.0296761
2862	0.0386349
2874	0.0593522
2886	0.103773
2898	0.176563
2910	0.270258
2922	0.309266
2934	0.27735
2946	0.208479
2958	0.161632
2970	0.198774
2982	0.323451
2994	0.358166
3006	0.237969
3018	0.0798828
3030	0.0270631
3042	0.0192241
3054	0.0179176
3066	0.0156779
3078	0.0154913
3090	0.0160512
3102	0.0199707
3114	0.0237035
3126	0.0222104
3138	0.0186642
3150	0.0175443
3162	0.0184776
3174	0.0184776
3186	0.0207173
3198	0.0184776
3210	0.017731
3222	0.0181043
3234	0.0158646
3246	0.0153046
3258	0.0121317
3270	0.0134382
3282	0.0128783
3294	0.0143714
3306	0.0132516
3318	0.0136249
3330	0.0136249
3342	0.0136249
3354	0.0130649
3366	0.0123184
3378	0.012505
3390	0.0134382
3402	0.0128783
3414	0.0138115
3426	0.0141848
3438	0.0154913
3450	0.0175443
3462	0.0270631
3474	0.0304226
3486	0.0238902
3498	0.0149314
3510	0.0134382
3522	0.0134382
3534	0.0154913
3546	0.0154913
3558	0.0156779
3570	0.0115718
3582	0.0123184
3594	0.0154913
3606	0.0141848
3618	0.0141848
3630	0.0149314
3642	0.0171711
3654	0.0166111
3666	0.0173577
3678	0.0160512
3690	0.0136249
3702	0.0117584
3714	0.0111985
3726	0.0123184
3738	0.0115718
3750	0.0111985
3762	0.0111985
3774	0.0117584
3786	0.0126917
3798	0.0128783
3810	0.0123184
3822	0.0117584
3834	0.0111985
3846	0.0115718
3858	0.0110119
3870	0.012505
3882	0.0111985
3894	0.0119451
3906	0.0110119
3918	0.0111985
3930	0.0139981
3942	0.0132516
3954	0.0126917
3966	0.0111985
