Infrared Spectrum: 3-Butyn-2-one
Formula: C 4 H 4 O
CAS: 1423-60-5
State: gas
Origin: EPA-IR VAPOR PHASE LIBRARY
1/CM	ABSORBANCE
549.8	0.002863
559.445	0.010313
569.09	0.020853
578.734	0.035213
588.379	0.030943
598.024	0.029623
607.669	0.022963
617.313	0.025933
626.958	0.043003
636.603	0.044753
646.248	0.121323
655.893	0.096833
665.537	0.065963
675.182	0.058883
684.827	0.069903
694.472	0.056183
704.116	0.040083
713.761	0.043303
723.406	0.039573
733.051	0.034323
742.695	0.032743
752.34	0.011563
761.985	0.004373
771.63	0.002303
781.275	0.002033
790.919	0.002813
800.564	0.002823
810.209	0.002183
819.854	0.000259
829.498	0.002153
839.143	0.0013782
848.788	0.001923
858.433	0.0012872
868.078	0.0011376
877.722	0.001823
887.367	0.001893
897.012	0.0016363
906.657	0.0014245
916.301	0.002353
925.946	0.003333
935.591	0.004893
945.236	0.010313
954.88	0.022833
964.525	0.032573
974.17	0.035033
983.815	0.036993
993.46	0.029913
1003.1	0.016873
1012.75	0.012843
1022.39	0.018383
1032.04	0.015273
1041.68	0.016933
1051.33	0.015733
1060.97	0.014843
1070.62	0.011823
1080.26	0.007263
1089.91	0.005123
1099.55	0.006273
1109.2	0.005213
1118.84	0.008483
1128.49	0.013513
1138.13	0.027413
1147.78	0.050213
1157.42	0.085403
1167.07	0.154883
1176.71	0.217383
1186.36	0.217443
1196	0.195213
1205.64	0.144703
1215.29	0.041583
1224.93	0.015733
1234.58	0.009343
1244.22	0.010733
1253.87	0.017173
1263.51	0.025063
1273.16	0.023253
1282.8	0.024403
1292.45	0.021633
1302.09	0.015543
1311.74	0.014803
1321.38	0.020093
1331.03	0.024423
1340.67	0.035883
1350.32	0.053003
1359.96	0.060923
1369.61	0.069053
1379.25	0.066223
1388.9	0.039163
1398.54	0.025223
1408.18	0.020883
1417.83	0.019923
1427.47	0.021003
1437.12	0.016083
1446.76	0.014423
1456.41	0.011363
1466.05	0.008103
1475.7	0.006323
1485.34	0.005483
1494.99	0.005493
1504.63	0.005813
1514.28	0.006603
1523.92	0.007533
1533.57	0.007403
1543.21	0.007833
1552.86	0.007773
1562.5	0.006303
1572.15	0.005773
1581.79	0.006003
1591.44	0.005953
1601.08	0.006133
1610.73	0.006183
1620.37	0.006643
1630.01	0.006843
1639.66	0.008123
1649.3	0.010793
1658.95	0.018883
1668.59	0.035643
1678.24	0.075393
1687.88	0.161443
1697.53	0.253053
1707.17	0.220873
1716.82	0.256253
1726.46	0.201043
1736.11	0.073913
1745.75	0.029653
1755.4	0.010383
1765.04	0.004043
1774.69	0.002273
1784.33	0.0015819
1793.98	0.001319
1803.62	0.0011931
1813.27	0.0011178
1822.91	0.0009864
1832.55	0.0009975
1842.2	0.0008951
1851.84	0.0015119
1861.49	0.002043
1871.13	0.002703
1880.78	0.002693
1890.42	0.002453
1900.07	0.001883
1909.71	0.001793
1919.36	0.0014866
1929	0.0015662
1938.65	0.0016295
1948.29	0.0015986
1957.94	0.0014688
1967.58	0.001289
1977.23	0.0011322
1986.87	0.0012325
1996.52	0.0010901
2006.16	0.0011822
2015.81	0.001673
2025.45	0.002263
2035.1	0.003463
2044.74	0.005963
2054.38	0.012283
2064.03	0.024793
2073.67	0.044433
2083.32	0.065453
2092.96	0.074943
2102.61	0.071013
2112.25	0.054763
2121.9	0.026103
2131.54	0.006233
2141.19	0.003073
2150.83	0.002473
2160.48	0.002193
2170.12	0.001723
2179.77	0.0014038
2189.41	0.0010193
2199.06	0.0008321
2208.7	0.000855
2218.35	0.0007754
2227.99	0.0011666
2237.64	0.0008487
2247.28	0.0012836
2256.92	0.0010544
2266.57	0.0013755
2276.21	0.0014542
2285.86	0.001202
2295.5	0.0011894
2305.15	0.0011712
2314.79	0.0016395
2324.44	0.0015635
2334.08	0.001813
2343.73	0.001693
2353.37	0.001863
2363.02	0.0013436
2372.66	0.0013003
2382.31	0.0011992
2391.95	0.0010176
2401.6	0.0009407
2411.24	0.0011511
2420.89	0.0011653
2430.53	0.0009775
2440.18	0.0008318
2449.82	0.0008808
2459.47	0.000434
2469.11	0.000507
2478.75	0.0007587
2488.4	0.0009231
2498.04	0.0012099
2507.69	0.0008394
2517.33	0.0009379
2526.98	0.0011086
2536.62	0.0014319
2546.27	0.0014411
2555.91	0.0010744
2565.56	0.00074624
2575.2	0.0009203
2584.85	0.0009043
2594.49	0.0010503
2604.14	0.0009205
2613.78	0.0012215
2623.43	0.0012042
2633.07	0.001773
2642.72	0.0014077
2652.36	0.0012171
2662.01	0.001953
2671.65	0.002173
2681.29	0.0016436
2690.94	0.001663
2700.58	0.0013373
2710.23	0.0009527
2719.87	0.0005736
2729.52	0.0012381
2739.16	0.0013605
2748.81	0.0010754
2758.45	0.000436
2768.1	0.0008078
2777.74	0.0008967
2787.39	0.0010461
2797.03	0.0012213
2806.68	0.0016414
2816.32	0.001693
2825.97	0.002073
2835.61	0.001683
2845.26	0.002073
2854.9	0.0016156
2864.55	0.001793
2874.19	0.002033
2883.84	0.002033
2893.48	0.002243
2903.12	0.002603
2912.77	0.003123
2922.41	0.004093
2932.06	0.003383
2941.7	0.004283
2951.35	0.004363
2960.99	0.004553
2970.64	0.005013
2980.28	0.006353
2989.93	0.005873
2999.57	0.008083
3009.22	0.008833
3018.86	0.009113
3028.51	0.008043
3038.15	0.005213
3047.8	0.003503
3057.44	0.004103
3067.09	0.004773
3076.73	0.004433
3086.38	0.004853
3096.02	0.003823
3105.67	0.002703
3115.31	0.003183
3124.95	0.002613
3134.6	0.002613
3144.24	0.001773
3153.89	0.0014562
3163.53	0.0012112
3173.18	0.001099
3182.82	0.0010293
3192.47	0.0010146
3202.11	0.00071424
3211.76	0.0010403
3221.4	0.001763
3231.05	0.0012047
3240.69	0.002413
3250.34	0.003763
3259.98	0.004963
3269.63	0.009073
3279.27	0.014993
3288.92	0.026183
3298.56	0.038993
3308.21	0.063323
3317.85	0.058733
3327.49	0.046993
3337.14	0.051263
3346.78	0.014513
3356.43	0.005333
3366.07	0.005373
3375.72	0.006523
3385.36	0.007673
3395.01	0.007623
3404.65	0.007843
3414.3	0.006503
3423.94	0.003443
3433.59	0.002233
3443.23	0.0014491
3452.88	0.0015769
3462.52	0.001993
3472.17	0.0013182
3481.81	0.0011429
3491.46	0.0012847
3501.1	0.0014279
3510.75	0.0010006
3520.39	0.0015067
3530.04	0.0005785
3539.68	0.0008945
3549.32	0.00131
3558.97	0.0008561
3568.61	0.00066544
3578.26	0.00052
3587.9	0.0011278
3597.55	0.0007646
3607.19	0.0005669
3616.84	0.000251
3626.48	0.000541
3636.13	0.000415
3645.77	0.0012377
3655.42	0.0007781
3665.06	0.00088
3674.71	0.001086
3684.35	0.000573
3694	0.000201
3703.64	0.000535
3713.29	0.001174
3722.93	0.0005573
3732.58	0.000662414
3742.22	0.0010056
3751.86	0.0009776
3761.51	0.000513
3771.15	0.0009594
3780.8	0.0006432
3790.44	0.001073
3800.09	0.000285
3809.73	0.001456
3819.38	0.00064569
3829.02	0.0010306
3838.67	0.0007836
3848.31	0.000292
3857.96	0.0007682
3867.6	0.000659495
3877.25	0.0008114
3886.89	0.0007966
3896.54	0.0010325
3906.18	0.0013243
3915.83	0.0012258
3925.47	0.0016516
3935.12	0.001693
3944.76	0.002493
3954.41	0.001913
3964.05	0.002513
3973.69	0.001933
3983.34	0.002893
3992.98	0.002143
