Infrared Spectrum: Methylamine, 1-(trimethylsilyl)-,
Formula: C4 H13 N Si
CAS: 18166-02-4
State: SOLUTION (10% CCl4 FOR 3800-900, 2% CS2 FOR 900-640, AND 10% CCl4 FOR 650-250)
Class: COBLENTZ III
Instrument: PERKIN-ELMER 521 (GRATING)
Instrument parameters: FILTERS AT 3150, 2500, 2000, 1150, 700, 410. GRATING CHANGES: 2000, 630
Path length: 0.012 CM, 0.010 CM, AND 0.011 CM
Resolution: 2
Origin: DOW CORNING CORP.
1/CM	TRANSMITTANCE
262	0.65
271	0.66
280	0.6653
289	0.6782
298	0.7053
307	0.7059
316	0.7057
325	0.6957
334	0.5828
343	0.5381
352	0.6967
361	0.7627
370	0.8289
379	0.8545
388	0.8634
397	0.8635
406	0.8569
415	0.83
424	0.8286
433	0.863
442	0.8641
451	0.8643
460	0.8695
469	0.8772
478	0.8757
487	0.8819
496	0.8857
505	0.8796
514	0.8751
523	0.8716
532	0.8711
541	0.8707
550	0.8705
559	0.867
568	0.8516
577	0.8336
586	0.8279
595	0.8298
604	0.8193
613	0.8095
622	0.8181
631	0.8113
640	0.792
649	0.8106
658	0.8237
667	0.7514
676	0.8101
685	0.8124
694	0.6873
703	0.8001
712	0.8367
721	0.8361
730	0.8237
739	0.7571
748	0.5739
757	0.5473
766	0.5658
775	0.5576
784	0.7468
793	0.7556
802	0.7184
811	0.6176
820	0.4512
829	0.4303
838	0.2685
847	0.2802
856	0.2065
865	0.2822
874	0.5736
883	0.7459
892	0.8449
901	0.6302
910	0.5238
919	0.4763
928	0.5732
937	0.7051
946	0.738
955	0.7478
964	0.7485
973	0.735
982	0.7206
991	0.7138
1000	0.6972
1009	0.6765
1018	0.6623
1027	0.6185
1036	0.5751
1045	0.6011
1054	0.591
1063	0.5812
1072	0.5635
1081	0.4963
1090	0.5603
1099	0.6376
1108	0.6953
1117	0.7153
1126	0.726
1135	0.7438
1144	0.7613
1153	0.7567
1162	0.7415
1171	0.7376
1180	0.7475
1189	0.73
1198	0.7166
1207	0.6835
1216	0.5406
1225	0.581
1234	0.4637
1243	0.0132
1252	0.0707
1261	0.1673
1270	0.4521
1279	0.479
1288	0.6419
1297	0.7118
1306	0.7037
1315	0.6844
1324	0.6852
1333	0.7468
1342	0.744
1351	0.7367
1360	0.7334
1369	0.741
1378	0.7318
1387	0.7077
1396	0.6436
1405	0.4808
1414	0.3926
1423	0.4854
1432	0.5157
1441	0.5874
1450	0.6217
1459	0.6568
1468	0.7068
1477	0.72
1486	0.7134
1495	0.695
1504	0.6616
1513	0.6888
1522	0.7087
1531	0.7092
1540	0.708
1549	0.7004
1558	0.6903
1567	0.678
1576	0.6606
1585	0.6359
1594	0.6055
1603	0.5775
1612	0.5469
1621	0.5407
1630	0.5774
1639	0.6586
1648	0.7079
1657	0.747
1666	0.766
1675	0.7724
1684	0.7778
1693	0.7997
1702	0.8306
1711	0.8597
1720	0.8689
1729	0.871
1738	0.8711
1747	0.8703
1756	0.8691
1765	0.8679
1774	0.8678
1783	0.8678
1792	0.8677
1801	0.8675
1810	0.8653
1819	0.8562
1828	0.8396
1837	0.8455
1846	0.8534
1855	0.8539
1864	0.8564
1873	0.8637
1882	0.862
1891	0.855
1900	0.8509
1909	0.8408
1918	0.8362
1927	0.8388
1936	0.8286
1945	0.8341
1954	0.8485
1963	0.8606
1972	0.865
1981	0.8664
1990	0.8663
1999	0.8621
2008	0.8736
2017	0.8721
2026	0.8783
2035	0.8806
2044	0.8808
2053	0.8796
2062	0.8774
2071	0.8732
2080	0.869
2089	0.8663
2098	0.8674
2107	0.8687
2116	0.8699
2125	0.8719
2134	0.8741
2143	0.8759
2152	0.8777
2161	0.8792
2170	0.8807
2179	0.8823
2188	0.8845
2197	0.8853
2206	0.8848
2215	0.884
2224	0.8827
2233	0.882
2242	0.8816
2251	0.8814
2260	0.8815
2269	0.8812
2278	0.8807
2287	0.8817
2296	0.8831
2305	0.8824
2314	0.8817
2323	0.8809
2332	0.8801
2341	0.8792
2350	0.8784
2359	0.8775
2368	0.8766
2377	0.8758
2386	0.8748
2395	0.8738
2404	0.8725
2413	0.8709
2422	0.8692
2431	0.8672
2440	0.8653
2449	0.8623
2458	0.8578
2467	0.851
2476	0.8438
2485	0.8356
2494	0.8392
2503	0.8395
2512	0.833
2521	0.8221
2530	0.8126
2539	0.8125
2548	0.8163
2557	0.8145
2566	0.8075
2575	0.792
2584	0.7777
2593	0.7928
2602	0.7961
2611	0.7905
2620	0.7833
2629	0.7818
2638	0.7837
2647	0.7837
2656	0.782
2665	0.7794
2674	0.7765
2683	0.7731
2692	0.7729
2701	0.7728
2710	0.769
2719	0.7506
2728	0.7201
2737	0.6802
2746	0.6354
2755	0.6325
2764	0.6249
2773	0.582
2782	0.5295
2791	0.4263
2800	0.2345
2809	0.1722
2818	0.2336
2827	0.3474
2836	0.4224
2845	0.4125
2854	0.3682
2863	0.3238
2872	0.3146
2881	0.2978
2890	0.2093
2899	0.1352
2908	0.1847
2917	0.281
2926	0.3591
2935	0.3565
2944	0.2234
2953	0.0585
2962	0.0197
2971	0.1501
2980	0.3628
2989	0.4389
2998	0.4957
3007	0.5249
3016	0.5452
3025	0.5602
3034	0.573
3043	0.5818
3052	0.5906
3061	0.6002
3070	0.6121
3079	0.6235
3088	0.6346
3097	0.6451
3106	0.6564
3115	0.6689
3124	0.6821
3133	0.6878
3142	0.6931
3151	0.6967
3160	0.699
3169	0.7018
3178	0.7058
3187	0.7127
3196	0.7246
3205	0.7365
3214	0.7513
3223	0.7622
3232	0.7739
3241	0.7832
3250	0.7887
3259	0.7907
3268	0.7906
3277	0.7881
3286	0.7836
3295	0.7791
3304	0.7769
3313	0.7763
3322	0.7753
3331	0.7778
3340	0.7869
3349	0.7936
3358	0.7933
3367	0.787
3376	0.7741
3385	0.7366
3394	0.7333
3403	0.7668
3412	0.8207
3421	0.8338
3430	0.8401
3439	0.8451
3448	0.849
3457	0.8528
3466	0.8585
3475	0.8637
3484	0.8678
3493	0.8716
3502	0.8758
3511	0.878
3520	0.88
3529	0.881
3538	0.8816
3547	0.8814
3556	0.8807
3565	0.8799
3574	0.8791
3583	0.8788
3592	0.8841
3601	0.8897
3610	0.8899
3619	0.8843
3628	0.8788
3637	0.8761
3646	0.875
3655	0.8739
3664	0.8722
3673	0.8626
3682	0.8326
3691	0.8371
3700	0.869
3709	0.8715
3718	0.8725
3727	0.8723
3736	0.8712
3745	0.8698
3754	0.8753
3763	0.8838
3772	0.89
3781	0.8933
3790	0.8945
3799	0.8946
3808	0.8947
