Infrared Spectrum: 3-Hexyne
Formula: C 6 H 10
CAS: 928-49-4
State: gas
Instrument: HP-GC/MS/IRD
Origin: NIST Mass Spectrometry Data Center
1/CM	ABSORBANCE
550	0.0003944
562	0.0003434
574	0.0004386
586	0.0003706
598	0.0004522
610	0.0005474
622	0.0005882
634	0.0005576
646	0.0004284
658	0.000255
670	0.0005168
682	0.0001258
694	0.0001496
706	0
718	6.8e-06
730	0.0001292
742	0.0001054
754	0.0001666
766	0.0002686
778	0.000374
790	0.000391
802	0.0003434
814	0.0002652
826	8.16e-05
838	6.12e-05
850	3.4e-05
862	4.76e-05
874	0.0001054
886	8.5e-05
898	0.0001768
910	0.0002958
922	0.0002516
934	9.18e-05
946	8.16e-05
958	0.0001666
970	0.0001768
982	0.000204
994	8.5e-05
1006	0.0001394
1018	0.0002142
1030	0.0002924
1042	0.0008602
1054	0.0015538
1066	0.0016762
1078	0.001445
1090	0.0011424
1102	0.0006562
1114	0.0003672
1126	0.0003264
1138	0.000391
1150	0.0004726
1162	0.000391
1174	0.000374
1186	0.000306
1198	0.0003094
1210	0.0003298
1222	0.0003842
1234	0.000357
1246	0.0003944
1258	0.0004522
1270	0.0006358
1282	0.0009146
1294	0.0019992
1306	0.0063444
1318	0.0146676
1330	0.0137496
1342	0.004539
1354	0.0015878
1366	0.0012342
1378	0.0014246
1390	0.0017136
1402	0.0019346
1414	0.00238
1426	0.0031416
1438	0.0041208
1450	0.0046546
1462	0.0045492
1474	0.0035938
1486	0.002448
1498	0.0016116
1510	0.001071
1522	0.0007208
1534	0.0005474
1546	0.0003978
1558	0.0004012
1570	0.0004114
1582	0.0004216
1594	0.000374
1606	0.0003094
1618	0.0002788
1630	0.0002278
1642	0.0002108
1654	0.000187
1666	0.0001734
1678	0.0001496
1690	9.52e-05
1702	0.0001224
1714	9.86e-05
1726	7.14e-05
1738	5.44e-05
1750	4.76e-05
1762	2.72e-05
1774	4.76e-05
1786	3.74e-05
1798	5.78e-05
1810	6.46e-05
1822	9.18e-05
1834	9.18e-05
1846	0.0001394
1858	0.0001666
1870	0.0001972
1882	0.0001564
1894	7.82e-05
1906	8.5e-05
1918	4.76e-05
1930	6.12e-05
1942	6.8e-05
1954	2.38e-05
1966	1.36e-05
1978	3.74e-05
1990	2.38e-05
2002	1.02e-05
2014	4.42e-05
2026	7.82e-05
2038	0.0001462
2050	0.0001394
2062	0.000102
2074	3.4e-05
2086	0
2098	3.06e-05
2110	6.12e-05
2122	4.76e-05
2134	6.12e-05
2146	8.16e-05
2158	5.1e-05
2170	6.8e-05
2182	2.72e-05
2194	5.1e-05
2206	6.46e-05
2218	9.52e-05
2230	6.8e-05
2242	0.0001088
2254	6.8e-05
2266	6.12e-05
2278	5.44e-05
2290	6.12e-05
2302	8.16e-05
2314	2.72e-05
2326	7.82e-05
2338	9.52e-05
2350	0.0001428
2362	0.0001428
2374	8.5e-05
2386	0
2398	4.08e-05
2410	5.1e-05
2422	8.5e-05
2434	0.0001462
2446	0.0001088
2458	5.44e-05
2470	2.38e-05
2482	0
2494	8.5e-05
2506	0.0001156
2518	0.0001224
2530	7.48e-05
2542	6.8e-05
2554	3.74e-05
2566	9.52e-05
2578	8.84e-05
2590	0.0001632
2602	0.0001496
2614	0.0002686
2626	0.0004216
2638	0.0003876
2650	0.0001394
2662	3.74e-05
2674	4.42e-05
2686	7.48e-05
2698	0.0001394
2710	0.0002142
2722	0.0003536
2734	0.0005406
2746	0.0007616
2758	0.0007854
2770	0.0007956
2782	0.0007854
2794	0.0009316
2806	0.0011832
2818	0.001683
2830	0.0026078
2842	0.0040154
2854	0.0066572
2866	0.0091766
2878	0.0126242
2890	0.015317
2902	0.0175066
2914	0.0186014
2926	0.0216614
2938	0.0286858
2950	0.0293556
2962	0.0258672
2974	0.0328134
2986	0.0333472
2998	0.0194072
3010	0.0109344
3022	0.006426
3034	0.0035224
3046	0.002091
3058	0.0014858
3070	0.001309
3082	0.0013396
3094	0.0013906
3106	0.0013974
3118	0.0012138
3130	0.0010234
3142	0.0008024
3154	0.00068
3166	0.0006936
3178	0.0006528
3190	0.0006052
3202	0.0005066
3214	0.0003332
3226	0.0002006
3238	0.0001666
3250	0.0001632
3262	0.0001666
3274	0.000119
3286	0.0001122
3298	0.0001462
3310	8.5e-05
3322	0.0001054
3334	0.0001156
3346	0.000153
3358	0.0001632
3370	0.0001462
3382	0.0001394
3394	7.48e-05
3406	9.52e-05
3418	7.14e-05
3430	0.0001088
3442	0.0001428
3454	0.0001836
3466	8.5e-05
3478	7.82e-05
3490	9.52e-05
3502	6.8e-05
3514	8.5e-05
3526	2.04e-05
3538	1.36e-05
3550	1.02e-05
3562	7.48e-05
3574	1.36e-05
3586	0.0001054
3598	3.06e-05
3610	5.78e-05
3622	6.8e-05
3634	6.12e-05
3646	0.000102
3658	3.4e-05
3670	6.8e-05
3682	9.52e-05
3694	8.16e-05
3706	0.0001088
3718	9.18e-05
3730	6.12e-05
3742	5.1e-05
3754	0.0001394
3766	0.0001802
3778	0.0001564
3790	9.86e-05
3802	0.0001496
3814	9.52e-05
3826	6.12e-05
3838	6.12e-05
