Infrared Spectrum: 1-Propanol, 3-amino-
Formula: C 3 H 9 N O
CAS: 156-87-6
State: gas
Origin: Sadtler Research Labs Under US-EPA Contract
1/CM	ABSORBANCE
450	0.0125646
462	0.0108974
474	0.00654658
486	0.0332209
498	0.0153296
510	0.0362705
522	0.0160615
534	0.0252918
546	0.0348473
558	0.0117107
570	0.0255357
582	0.0282601
594	0.0252104
606	0.0200057
618	0.0151669
630	0.0118733
642	0.0109787
654	0.0126052
666	0.0131745
678	0.0175253
690	0.0222015
702	0.0326109
714	0.043183
726	0.069898
738	0.0832351
750	0.126743
762	0.138088
774	0.143821
786	0.13085
798	0.123328
810	0.109909
822	0.105477
834	0.0703046
846	0.0404994
858	0.0236653
870	0.0193145
882	0.0147603
894	0.0252104
906	0.0382223
918	0.034766
930	0.0321636
942	0.0324483
954	0.0261863
966	0.0253324
978	0.0263083
990	0.0327329
1002	0.0528606
1014	0.0719311
1026	0.119018
1038	0.177734
1050	0.235921
1062	0.262595
1074	0.260115
1086	0.220754
1098	0.136868
1110	0.0738829
1122	0.0408246
1134	0.0367584
1146	0.0349693
1158	0.026471
1170	0.0219575
1182	0.0164681
1194	0.0165494
1206	0.0181353
1218	0.0198024
1230	0.020209
1242	0.0159395
1254	0.0190705
1266	0.0193958
1278	0.0241939
1290	0.0231367
1302	0.0225267
1314	0.0214289
1326	0.0217135
1338	0.0274468
1350	0.0373684
1362	0.052698
1374	0.0630261
1386	0.0746148
1398	0.0679869
1410	0.0577807
1422	0.0596105
1434	0.0627008
1446	0.055219
1458	0.0451348
1470	0.041028
1482	0.0332615
1494	0.0249665
1506	0.020087
1518	0.0188265
1530	0.0187045
1542	0.0203717
1554	0.0200057
1566	0.0161835
1578	0.0157362
1590	0.0198837
1602	0.0293173
1614	0.0426544
1626	0.0486318
1638	0.0410686
1650	0.0275282
1662	0.0131745
1674	0.00654658
1686	0.00357826
1698	0.00211442
1710	0.000772578
1722	0.000569268
1734	0.00121986
1746	0.00187045
1758	0.00268369
1770	0.00260237
1782	0.00309031
1794	0.00256171
1806	0.00361892
1818	0.00353759
1830	0.00402554
1842	0.00390355
1854	0.00410686
1866	0.00447282
1878	0.00394421
1890	0.00353759
1902	0.00353759
1914	0.002887
1926	0.0032123
1938	0.00353759
1950	0.00329362
1962	0.00349693
1974	0.0040662
1986	0.00414752
1998	0.0043915
2010	0.00463547
2022	0.00500143
2034	0.00512341
2046	0.00601798
2058	0.00605864
2070	0.00605864
2082	0.00593665
2094	0.0052454
2106	0.00508275
2118	0.00447282
2130	0.0049201
2142	0.00426951
2154	0.00435083
2166	0.00390355
2178	0.00398488
2190	0.00414752
2202	0.002887
2214	0.00292766
2226	0.00300899
2238	0.00309031
2250	0.00300899
2262	0.00248038
2274	0.00227707
2286	0.00215509
2298	0.00191111
2310	0.00130118
2322	0.00191111
2334	0.00195178
2346	0.00130118
2358	0.00280568
2370	0.000853902
2382	0.0011792
2394	0.00154516
2406	0.00174847
2418	0.00223641
2430	0.00199244
2442	0.00207376
2454	0.0020331
2466	0.00215509
2478	0.00243972
2490	0.00227707
2502	0.002887
2514	0.00260237
2526	0.00292766
2538	0.00248038
2550	0.00191111
2562	0.00166714
2574	0.00126052
2586	0.00162648
2598	0.00154516
2610	0.00219575
2622	0.00268369
2634	0.0032123
2646	0.00382223
2658	0.00516407
2670	0.00699386
2682	0.00890498
2694	0.0118733
2706	0.0140691
2718	0.0171594
2730	0.0205343
2742	0.0246818
2754	0.0295206
2766	0.0356199
2778	0.0409466
2790	0.0441183
2802	0.0503802
2814	0.0666044
2826	0.0905136
2838	0.128614
2850	0.1781
2862	0.229008
2874	0.254463
2886	0.255886
2898	0.250925
2910	0.285813
2922	0.353719
2934	0.403082
2946	0.370187
2958	0.289757
2970	0.187736
2982	0.106128
2994	0.0511935
3006	0.0262677
3018	0.0156549
3030	0.0117513
3042	0.0089863
3054	0.00756313
3066	0.00650592
3078	0.00516407
3090	0.00483878
3102	0.0049201
3114	0.00402554
3126	0.00365958
3138	0.00431017
3150	0.00333428
3162	0.00337495
3174	0.00296833
3186	0.00313097
3198	0.00256171
3210	0.0023584
3222	0.00260237
3234	0.00292766
3246	0.00272435
3258	0.00280568
3270	0.00349693
3282	0.0049201
3294	0.00630261
3306	0.0060993
3318	0.00532672
3330	0.00691254
3342	0.00837637
3354	0.00825439
3366	0.00849836
3378	0.00829505
3390	0.00874233
3402	0.00857968
3414	0.0103281
3426	0.00825439
3438	0.00784777
3450	0.00662791
3462	0.0127272
3474	0.0444029
3486	0.0701419
3498	0.0722564
3510	0.0574147
3522	0.037531
3534	0.0246412
3546	0.0182979
3558	0.0117107
3570	0.00740048
3582	0.00418819
3594	0.00276502
3606	0.00138251
3618	0.00309031
3630	0.00394421
3642	0.00955557
3654	0.0256984
3666	0.0371651
3678	0.0369618
3690	0.0231367
3702	0.00634327
3714	0.00130118
3726	0.000487944
3738	0.000162648
3750	0.000284634
3762	0.000162648
3774	0.000162648
3786	0.000162648
3798	0.000325296
3810	0.00020331
3822	0.00178913
3834	0.000284634
3846	0.0017078
3858	0.00195178
3870	0.000162648
3882	0.00187045
3894	0.000162648
3906	0
3918	0.00219575
3930	0.000162648
3942	0.00219575
3954	0.000162648
3966	0.000162648
