Infrared Spectrum: 1-CHLOROPROPANE
Formula: C3 H7 Cl
CAS: 540-54-5
State: GAS
Boiling point: 45-47 C
Class: COBLENTZ
Instrument: Not specified, most likely a prism, grating, or hybrid spectrometer.
Sampling: TRANSMISSION
Resolution: 4
Origin: WYANDOTTE CHEMICALS CORP., WYANDOTTE, MICHIGAN, USA
MICROMETERS	TRANSMITTANCE
2.061	1.003
2.10098	1.013
2.14095	1.011
2.18093	0.991
2.2209	0.988
2.26088	0.995
2.30086	0.993
2.34083	1.001
2.38081	1.003
2.42078	1.001
2.46076	0.995
2.50074	1.011
2.54071	1.005
2.58069	1.001
2.62066	1.01
2.66064	1.001
2.70062	1.008
2.74059	1.003
2.78057	1.016
2.82054	1.001
2.86052	1.003
2.9005	0.996
2.94047	1.001
2.98045	1
3.02042	1
3.0604	0.991
3.10038	0.981
3.14035	0.933
3.18033	0.93
3.22031	0.916
3.26028	0.916
3.30026	0.653
3.34023	0.053
3.38021	0.04
3.42019	0.095
3.46016	0.13
3.50014	0.321
3.54011	0.7
3.58009	0.865
3.62007	0.921
3.66004	0.911
3.70002	0.931
3.73999	0.93
3.77997	0.943
3.81995	0.965
3.85992	0.97
3.8999	0.971
3.93987	0.966
3.97985	0.961
4.01983	0.96
4.0598	0.961
4.09978	0.963
4.13975	0.953
4.17973	0.948
4.21971	0.95
4.25968	0.958
4.29966	0.976
4.33963	0.985
4.37961	0.99
4.41959	0.961
4.45956	0.961
4.49954	0.96
4.53951	0.948
4.57949	0.966
4.61947	0.961
4.65944	0.96
4.69942	0.965
4.73939	0.961
4.77937	0.97
4.81935	0.971
4.85932	0.97
4.8993	0.966
4.93927	0.956
4.97925	0.97
5.01923	0.976
5.0592	0.975
5.09918	0.973
5.13915	0.971
5.17913	0.963
5.21911	0.961
5.25908	0.955
5.29906	0.951
5.33904	0.958
5.37901	0.965
5.41899	0.961
5.45896	0.96
5.49894	0.961
5.53892	0.961
5.57889	0.965
5.61887	0.96
5.65884	0.958
5.69882	0.955
5.7388	0.96
5.77877	0.95
5.81875	0.938
5.85872	0.936
5.8987	0.936
5.93868	0.943
5.97865	0.933
6.01863	0.925
6.0586	0.941
6.09858	0.945
6.13856	0.946
6.17853	0.93
6.21851	0.923
6.25848	0.925
6.29846	0.93
6.33844	0.935
6.37841	0.94
6.41839	0.94
6.45836	0.945
6.49834	0.935
6.53832	0.921
6.57829	0.875
6.61827	0.79
6.65824	0.653
6.69822	0.48
6.7382	0.378
6.77817	0.288
6.81815	0.245
6.85812	0.26
6.8981	0.326
6.93808	0.45
6.97805	0.69
7.01803	0.783
7.058	0.811
7.09798	0.733
7.13796	0.558
7.17793	0.54
7.21791	0.57
7.25788	0.613
7.29786	0.8
7.33784	0.803
7.37781	0.713
7.41779	0.655
7.45777	0.591
7.49774	0.456
7.53772	0.41
7.57769	0.251
7.61767	0.163
7.65765	0.201
7.69762	0.23
7.7376	0.338
7.77757	0.558
7.81755	0.538
7.85753	0.411
7.8975	0.32
7.93748	0.348
7.97745	0.413
8.01743	0.588
8.05741	0.771
8.09738	0.831
8.13736	0.865
8.17733	0.876
8.21731	0.896
8.25729	0.905
8.29726	0.901
8.33724	0.913
8.37721	0.925
8.41719	0.931
8.45717	0.94
8.49714	0.938
8.53712	0.93
8.57709	0.925
8.61707	0.936
8.65705	0.933
8.69702	0.935
8.737	0.95
8.77697	0.95
8.81695	0.94
8.85693	0.945
8.8969	0.933
8.93688	0.92
8.97685	0.908
9.01683	0.898
9.05681	0.876
9.09678	0.865
9.13676	0.868
9.17673	0.853
9.21671	0.848
9.25669	0.845
9.29666	0.846
9.33664	0.836
9.37661	0.826
9.41659	0.816
9.45657	0.79
9.49654	0.751
9.53652	0.756
9.5765	0.745
9.61647	0.725
9.65645	0.735
9.69642	0.75
9.7364	0.785
9.77638	0.823
9.81635	0.855
9.85633	0.888
9.8963	0.901
9.93628	0.911
9.97626	0.918
10.0162	0.916
10.0562	0.921
10.0962	0.923
10.1362	0.925
10.1761	0.925
10.2161	0.925
10.2561	0.916
10.2961	0.928
10.336	0.926
10.376	0.925
10.416	0.921
10.456	0.925
10.4959	0.926
10.5359	0.933
10.5759	0.923
10.6159	0.928
10.6558	0.928
10.6958	0.923
10.7358	0.911
10.7758	0.91
10.8158	0.903
10.8557	0.875
10.8957	0.841
10.9357	0.74
10.9757	0.548
11.0156	0.406
11.0556	0.343
11.0956	0.373
11.1356	0.386
11.1755	0.331
11.2155	0.353
11.2555	0.415
11.2955	0.473
11.3354	0.571
11.3754	0.671
11.4154	0.721
11.4554	0.728
11.4953	0.668
11.5353	0.605
11.5753	0.575
11.6153	0.595
11.6552	0.591
11.6952	0.586
11.7352	0.61
11.7752	0.601
11.8152	0.613
11.8551	0.651
11.8951	0.711
11.9351	0.771
11.9751	0.805
12.015	0.841
12.055	0.863
12.095	0.876
12.135	0.873
12.1749	0.868
12.2149	0.843
12.2549	0.801
12.2949	0.761
12.3348	0.683
12.3748	0.573
12.4148	0.448
12.4548	0.348
12.4947	0.286
12.5347	0.286
12.5747	0.33
12.6147	0.298
12.6547	0.27
12.6946	0.343
12.7346	0.313
12.7746	0.34
12.8146	0.426
12.8545	0.528
12.8945	0.605
12.9345	0.678
12.9745	0.705
13.0144	0.73
13.0544	0.733
13.0944	0.703
13.1344	0.63
13.1743	0.51
13.2143	0.371
13.2543	0.25
13.2943	0.206
13.3342	0.191
13.3742	0.191
13.4142	0.198
13.4542	0.208
13.4941	0.216
13.5341	0.221
13.5741	0.228
13.6141	0.253
13.6541	0.288
13.694	0.346
13.734	0.433
13.774	0.525
13.814	0.593
13.8539	0.666
13.8939	0.711
13.9339	0.755
13.9739	0.788
14.0138	0.805
14.0538	0.828
14.0938	0.841
14.1338	0.858
14.1737	0.868
14.2137	0.883
14.2537	0.885
14.2937	0.888
14.3336	0.885
14.3736	0.883
14.4136	0.871
14.4536	0.865
14.4935	0.853
14.5335	0.843
14.5735	0.828
14.6135	0.813
14.6535	0.798
14.6934	0.783
14.7334	0.755
14.7734	0.721
14.8134	0.65
14.8533	0.568
14.8933	0.498
14.9333	0.423
14.9733	0.395
15.0132	0.406
15.0532	0.446
15.0932	0.468
15.1332	0.433
15.1731	0.421
15.2131	0.428
15.2531	0.445
15.2931	0.453
15.333	0.461
15.373	0.475
15.413	0.493
15.453	0.521
15.4929	0.556
15.5329	0.598
15.5729	0.63
15.6129	0.661
15.6529	0.688
15.6928	0.713
15.7328	0.731
15.7728	0.746
15.8128	0.758
15.8527	0.766
15.8927	0.775
15.9327	0.771
15.9727	0.778
16.0126	0.778
