Infrared Spectrum: 1-CHLORO PROPANE
Formula: C3 H7 Cl
CAS: 540-54-5
State: LIQUID
Melting point: 45-47 C
Class: COBLENTZ
Instrument: Not specified, most likely a prism, grating, or hybrid spectrometer.
Sampling: TRANSMISSION
Path length: 0.005 CM
Resolution: 4
Origin: WYANDOTTE CHEMICALS CORP., WYANDOTTE, MICHIGAN, USA
MICROMETERS	TRANSMITTANCE
2.011	0.982
2.04979	0.988
2.08858	0.978
2.12738	0.985
2.16617	0.92
2.20496	0.836
2.24375	0.823
2.28254	0.826
2.32133	0.852
2.36013	0.873
2.39892	0.877
2.43771	0.891
2.4765	0.914
2.51529	0.922
2.55408	0.909
2.59288	0.907
2.63167	0.911
2.67046	0.896
2.70925	0.907
2.74804	0.915
2.78683	0.909
2.82563	0.917
2.86442	0.919
2.90321	0.92
2.942	0.906
2.98079	0.893
3.01958	0.889
3.05838	0.881
3.09717	0.86
3.13596	0.805
3.17475	0.792
3.21354	0.779
3.25233	0.747
3.29113	0.567
3.32992	0.012
3.36871	0.022
3.4075	0.03
3.44629	0.066
3.48508	0.105
3.52388	0.331
3.56267	0.629
3.60146	0.728
3.64025	0.773
3.67904	0.77
3.71783	0.8
3.75663	0.794
3.79542	0.847
3.83421	0.854
3.873	0.857
3.91179	0.854
3.95058	0.847
3.98938	0.843
4.02817	0.838
4.06696	0.844
4.10575	0.857
4.14454	0.833
4.18333	0.828
4.22213	0.834
4.26092	0.854
4.29971	0.855
4.3385	0.859
4.37729	0.851
4.41608	0.822
4.45488	0.826
4.49367	0.841
4.53246	0.831
4.57125	0.82
4.61004	0.833
4.64883	0.839
4.68763	0.843
4.72642	0.851
4.76521	0.847
4.804	0.846
4.84279	0.841
4.88158	0.844
4.92038	0.852
4.95917	0.851
4.99796	0.859
5.03675	0.864
5.07554	0.859
5.11433	0.857
5.15313	0.859
5.19192	0.852
5.23071	0.844
5.2695	0.834
5.30829	0.843
5.34708	0.836
5.38588	0.849
5.42467	0.843
5.46346	0.841
5.50225	0.834
5.54104	0.843
5.57983	0.847
5.61863	0.846
5.65742	0.836
5.69621	0.833
5.735	0.825
5.77379	0.82
5.81258	0.812
5.85138	0.805
5.89017	0.81
5.92896	0.802
5.96775	0.799
6.00654	0.81
6.04533	0.809
6.08413	0.794
6.12292	0.796
6.16171	0.788
6.2005	0.771
6.23929	0.77
6.27808	0.768
6.31688	0.77
6.35567	0.779
6.39446	0.766
6.43325	0.757
6.47204	0.747
6.51083	0.724
6.54963	0.7
6.58842	0.65
6.62721	0.577
6.666	0.496
6.70479	0.365
6.74358	0.226
6.78238	0.04
6.82117	0.043
6.85996	0.042
6.89875	0.035
6.93754	0.126
6.97633	0.266
7.01513	0.412
7.05392	0.517
7.09271	0.553
7.1315	0.525
7.17029	0.412
7.20908	0.148
7.24788	0.262
7.28667	0.512
7.32546	0.592
7.36425	0.595
7.40304	0.509
7.44183	0.354
7.48063	0.257
7.51942	0.386
7.55821	0.289
7.597	0.132
7.63579	0.025
7.67459	0.032
7.71338	0.121
7.75217	0.279
7.79096	0.401
7.82975	0.427
7.86854	0.31
7.90734	0.129
7.94613	0.053
7.98492	0.216
8.02371	0.449
8.0625	0.542
8.10129	0.605
8.14009	0.66
8.17888	0.676
8.21767	0.665
8.25646	0.647
8.29525	0.699
8.33404	0.736
8.37284	0.754
8.41163	0.771
8.45042	0.786
8.48921	0.789
8.528	0.788
8.56679	0.789
8.60559	0.763
8.64438	0.757
8.68317	0.783
8.72196	0.786
8.76075	0.802
8.79954	0.81
8.83834	0.805
8.87713	0.792
8.91592	0.788
8.95471	0.755
8.9935	0.728
9.03229	0.694
9.07109	0.699
9.10988	0.677
9.14867	0.658
9.18746	0.66
9.22625	0.642
9.26504	0.626
9.30384	0.627
9.34263	0.59
9.38142	0.551
9.42021	0.608
9.459	0.632
9.49779	0.61
9.53659	0.543
9.57538	0.454
9.61417	0.422
9.65296	0.436
9.69175	0.415
9.73054	0.512
9.76934	0.619
9.80813	0.673
9.84692	0.699
9.88571	0.72
9.9245	0.736
9.96329	0.744
10.0021	0.75
10.0409	0.754
10.0797	0.757
10.1185	0.763
10.1573	0.771
10.196	0.768
10.2348	0.768
10.2736	0.771
10.3124	0.773
10.3512	0.766
10.39	0.757
10.4288	0.747
10.4676	0.749
10.5064	0.744
10.5452	0.749
10.584	0.755
10.6228	0.757
10.6615	0.757
10.7003	0.75
10.7391	0.742
10.7779	0.726
10.8167	0.711
10.8555	0.684
10.8943	0.665
10.9331	0.626
10.9719	0.563
11.0107	0.459
11.0495	0.32
11.0883	0.15
11.127	0.042
11.1658	0.048
11.2046	0.082
11.2434	0.187
11.2822	0.313
11.321	0.422
11.3598	0.496
11.3986	0.527
11.4374	0.563
11.4762	0.559
11.515	0.532
11.5538	0.487
11.5925	0.409
11.6313	0.305
11.6701	0.181
11.7089	0.131
11.7477	0.199
11.7865	0.3
11.8253	0.399
11.8641	0.487
11.9029	0.556
11.9417	0.601
11.9805	0.632
12.0193	0.653
12.058	0.658
12.0968	0.665
12.1356	0.658
12.1744	0.653
12.2132	0.648
12.252	0.642
12.2908	0.624
12.3296	0.598
12.3684	0.564
12.4072	0.517
12.446	0.456
12.4848	0.378
12.5235	0.288
12.5623	0.19
12.6011	0.093
12.6399	0.04
12.6787	0.019
12.7175	0.024
12.7563	0.055
12.7951	0.135
12.8339	0.242
12.8727	0.341
12.9115	0.402
12.9503	0.451
12.989	0.491
13.0278	0.504
13.0666	0.521
13.1054	0.521
13.1442	0.504
13.183	0.49
13.2218	0.459
13.2606	0.419
13.2994	0.372
13.3382	0.322
13.377	0.275
13.4158	0.249
13.4545	0.226
13.4933	0.202
13.5321	0.155
13.5709	0.114
13.6097	0.067
13.6485	0.048
13.6873	0.038
13.7261	0.033
13.7649	0.035
13.8037	0.038
13.8425	0.042
13.8813	0.053
13.92	0.085
13.9588	0.122
13.9976	0.169
14.0364	0.245
14.0752	0.312
14.114	0.372
14.1528	0.428
14.1916	0.475
14.2304	0.516
14.2692	0.546
14.308	0.574
14.3468	0.592
14.3855	0.605
14.4243	0.614
14.4631	0.624
14.5019	0.629
14.5407	0.639
14.5795	0.639
14.6183	0.639
14.6571	0.637
14.6959	0.627
14.7347	0.624
14.7735	0.613
14.8123	0.598
14.851	0.582
14.8898	0.567
14.9286	0.55
14.9674	0.532
15.0062	0.521
15.045	0.506
15.0838	0.49
15.1226	0.443
15.1614	0.409
15.2002	0.375
15.239	0.352
15.2778	0.32
15.3165	0.305
15.3553	0.297
15.3941	0.294
15.4329	0.3
15.4717	0.312
15.5105	0.322
15.5493	0.347
15.5881	0.354
15.6269	0.38
15.6657	0.411
15.7045	0.446
15.7433	0.475
15.782	0.5
15.8208	0.532
15.8596	0.559
15.8984	0.579
15.9372	0.593
15.976	0.611
