Infrared Spectrum: PROPANE, 1-CHLORO-
Formula: C3 H7 Cl
CAS: 540-54-5
State: SOLUTION (10% IN CCl4 FOR 3800-1333, AND 10% IN CS2 FOR 1333-440 CM^-^1)
Class: COBLENTZ III
Instrument: DOW KBr FOREPRISM-GRATING
Instrument parameters: BLAZED AT 3.5, 12.0, 20.0 MICRON, CHANGED AT 5.0, 7.5, 14.9 MICRON
Sampling: TRANSMISSION
Path length: 0.011, 0.011 CM
Resolution: 4
Origin: DOW CHEMICAL COMPANY
1/CM	TRANSMITTANCE
431.287	0.982
439.978	0.99
448.669	1.002
457.36	1.01
466.051	1.021
474.742	1.025
483.433	1.035
492.124	1.044
500.814	1.048
509.505	1.052
518.196	1.057
526.887	1.066
535.578	1.072
544.269	1.077
552.96	1.078
561.651	1.078
570.342	1.078
579.033	1.078
587.724	1.07
596.415	1.063
605.106	1.04
613.797	1.033
622.488	1.009
631.179	0.952
639.869	0.71
648.56	0.332
657.251	0.7021
665.942	0.98
674.633	1.032
683.324	1.054
692.015	1.048
700.706	1.025
709.397	0.959
718.088	0.75
726.779	0.448
735.47	0.581
744.161	0.87
752.852	1.01
761.543	1.019
770.233	0.986
778.924	0.838
787.615	0.308
796.306	0.783
804.997	1.014
813.688	1.057
822.379	1.055
831.07	1.039
839.761	0.97
848.452	0.754
857.143	0.639
865.834	0.876
874.525	0.921
883.216	0.884
891.907	0.654
900.598	0.7581
909.288	1.039
917.979	1.08
926.67	1.099
935.361	1.105
944.052	1.099
952.743	1.099
961.434	1.11
970.125	1.11
978.816	1.104
987.507	1.093
996.198	1.091
1004.89	1.08
1013.58	1.058
1022.27	1.004
1030.96	0.956
1039.65	0.985
1048.34	1.029
1057.03	1.001
1065.73	1.019
1074.42	1.019
1083.11	1.038
1091.8	1.046
1100.49	1.048
1109.18	1.074
1117.87	1.091
1126.56	1.096
1135.25	1.089
1143.94	1.093
1152.63	1.096
1161.33	1.114
1170.02	1.108
1178.71	1.105
1187.4	1.097
1196.09	1.078
1204.78	1.047
1213.47	1.054
1222.16	1.047
1230.85	1.004
1239.54	0.955
1248.23	0.737
1256.93	0.5251
1265.62	0.868
1274.31	0.926
1283	0.853
1291.69	0.6219
1300.38	0.402
1309.07	0.6012
1317.76	0.872
1326.45	0.896
1335.14	0.706
1343.84	0.913
1352.53	0.951
1361.22	0.942
1369.91	0.891
1378.6	0.559
1387.29	0.861
1395.98	0.926
1404.67	0.926
1413.36	0.902
1422.05	0.851
1430.74	0.71
1439.44	0.52
1448.13	0.509
1456.82	0.316
1465.51	0.391
1474.2	0.725
1482.89	0.812
1491.58	0.819
1500.27	0.802
1508.96	0.767
1517.65	0.726
1526.34	0.697
1535.04	0.61
1543.73	0.506
1552.42	0.501
1561.11	0.576
1569.8	0.677
1578.49	0.703
1587.18	0.74
1595.87	0.82
1604.56	0.915
1613.25	0.957
1621.95	0.979
1630.64	0.983
1639.33	0.998
1648.02	1.002
1656.71	1.001
1665.4	1.004
1674.09	1.006
1682.78	1.008
1691.47	1.005
1700.16	1.01
1708.85	1.013
1717.55	1.012
1726.24	1.013
1734.93	1.012
1743.62	1.013
1752.31	1.016
1761	1.014
1769.69	1.014
1778.38	1.02
1787.07	1.017
1795.76	1.013
1804.45	1.013
1813.15	1.009
1821.84	1.009
1830.53	1.008
1839.22	1.009
1847.91	1.009
1856.6	1.01
1865.29	1.012
1873.98	1.01
1882.67	1.012
1891.36	1.01
1900.06	1.013
1908.75	1.012
1917.44	1.012
1926.13	1.017
1934.82	1.017
1943.51	1.017
1952.2	1.012
1960.89	1.016
1969.58	1.016
1978.27	1.014
1986.96	1.014
1995.66	0.997
2004.35	0.997
2013.04	1.001
2021.73	1.002
2030.42	1.002
2039.11	1.002
2047.8	1.003
2056.49	1.002
2065.18	1.002
2073.87	1.002
2082.56	1.002
2091.26	1.002
2099.95	1.004
2108.64	1.004
2117.33	1.002
2126.02	1.002
2134.71	1.001
2143.4	1
2152.09	1
2160.78	0.998
2169.47	0.998
2178.17	0.997
2186.86	0.998
2195.55	0.9991
2204.24	0.998
2212.93	0.9961
2221.62	0.993
2230.31	0.991
2239	0.993
2247.69	0.993
2256.38	0.9906
2265.07	0.982
2273.77	0.971
2282.46	0.971
2291.15	0.9704
2299.84	0.9752
2308.53	0.976
2317.22	0.9798
2325.91	0.9744
2334.6	0.9696
2343.29	0.9759
2351.98	0.9734
2360.67	0.9685
2369.37	1
2378.06	1
2386.75	1
2395.44	1
2404.13	1.0004
2412.82	1
2421.51	1
2430.2	1
2438.89	1.0016
2447.58	1.002
2456.27	1.002
2464.97	1.0004
2473.66	1
2482.35	1
2491.04	1
2499.73	1
2508.42	1
2517.11	1
2525.8	1
2534.49	1
2543.18	1
2551.88	1
2560.57	1
2569.26	1
2577.95	1
2586.64	1
2595.33	1
2604.02	1
2612.71	0.9994
2621.4	0.9973
2630.09	0.997
2638.78	0.995
2647.48	0.993
2656.17	0.9864
2664.86	0.979
2673.55	0.983
2682.24	0.987
2690.93	0.987
2699.62	0.987
2708.31	0.9857
2717	0.983
2725.69	0.9749
2734.38	0.9607
2743.08	0.9753
2751.77	0.983
2760.46	0.9787
2769.15	0.9742
2777.84	0.9695
2786.53	0.9622
2795.22	0.94
2803.91	0.9465
2812.6	0.9323
2821.29	0.907
2829.99	0.8528
2838.68	0.7965
2847.37	0.6955
2856.06	0.6969
2864.75	0.5345
2873.44	0.3385
2882.13	0.4681
2890.82	0.5672
2899.51	0.5071
2908.2	0.4505
2916.89	0.3888
2925.59	0.3648
2934.28	0.1847
2942.97	0.2304
2951.66	0.1538
2960.35	0.0552
2969.04	0.0312
2977.73	0.0444
2986.42	0.2064
2995.11	0.3629
3003.8	0.6424
3012.49	0.8238
3021.19	0.8949
3029.88	0.9329
3038.57	0.9495
3047.26	0.9635
3055.95	0.9725
3064.64	0.9792
3073.33	0.9833
3082.02	0.986
3090.71	0.986
3099.4	0.9873
3108.1	0.9901
3116.79	0.994
3125.48	0.997
3134.17	0.997
3142.86	0.997
3151.55	0.993
3160.24	0.99
3168.93	0.99
3177.62	0.9901
3186.31	0.993
3195	0.9971
3203.7	0.998
3212.39	1
3221.08	1.001
3229.77	1.001
3238.46	1
3247.15	1.0019
3255.84	1.001
3264.53	1.001
3273.22	1
3281.91	1
3290.6	1
3299.3	1.001
3307.99	1.001
3316.68	1
3325.37	0.998
3334.06	0.997
3342.75	0.995
3351.44	0.9939
3360.13	0.9869
3368.82	0.983
3377.51	0.979
3386.21	0.979
3394.9	0.98
3403.59	0.983
3412.28	0.985
3420.97	0.986
3429.66	0.9891
3438.35	0.993
3447.04	1
3455.73	0.9981
3464.42	1.001
3473.11	1
3481.81	1.0021
3490.5	1.006
3499.19	1.006
3507.88	1.008
3516.57	1.008
3525.26	1.008
3533.95	1.008
3542.64	1.008
3551.33	1.01
3560.02	1.012
3568.71	1.005
3577.41	1.005
3586.1	1.005
3594.79	1.005
3603.48	1.006
3612.17	1.006
3620.86	1.006
3629.55	1.006
3638.24	1.008
3646.93	1.0001
3655.62	1
3664.32	1
3673.01	1
3681.7	0.9872
3690.39	1.002
3699.08	1.004
3707.77	1.004
3716.46	1.004
3725.15	1.004
3733.84	1.004
3742.53	1.005
3751.22	1.006
3759.92	1.006
3768.61	1.0021
3777.3	1.0058
3785.99	1.002
3794.68	1.0001
3803.37	0.9971
