Infrared Spectrum: Propane, 1-chloro-
Formula: C 3 H 7 Cl
CAS: 540-54-5
State: gas
Origin: Sadtler Research Labs Under US-EPA Contract
1/CM	ABSORBANCE
450	0
462	0.00530886
474	0.00714857
486	0.00583449
498	0.00925109
510	0.00783189
522	0.0052563
534	0.00756907
546	0.00793701
558	0.00641269
570	0.00741138
582	0.00730626
594	0.00614987
606	0.00982928
618	0.0108805
630	0.02297
642	0.0503554
654	0.082629
666	0.0828919
678	0.054245
690	0.0178714
702	0.0154535
714	0.0254931
726	0.0634435
738	0.105914
750	0.113957
762	0.0429965
774	0.0372146
786	0.0699614
798	0.0691729
810	0.0605526
822	0.0236534
834	0.021656
846	0.0360582
858	0.0386864
870	0.0386338
882	0.0442055
894	0.0643371
906	0.0637589
918	0.0262815
930	0.0106703
942	0.00846264
954	0.00804214
966	0.00772676
978	0.00751651
990	0.00777932
1002	0.00867289
1014	0.0121946
1026	0.0189227
1038	0.0218136
1050	0.0208675
1062	0.0160843
1074	0.013351
1086	0.0136664
1098	0.0127728
1110	0.011669
1122	0.00993441
1134	0.0100921
1146	0.00893571
1158	0.00798958
1170	0.00746395
1182	0.0080947
1194	0.00856777
1206	0.00977672
1218	0.0108805
1230	0.0140869
1242	0.0327467
1254	0.0652832
1266	0.0766894
1278	0.06255
1290	0.0825239
1302	0.107491
1314	0.119371
1326	0.0725369
1338	0.0507759
1350	0.0326416
1362	0.0207098
1374	0.0304865
1386	0.0391594
1398	0.0446785
1410	0.025861
1422	0.0259136
1434	0.0521425
1446	0.0770048
1458	0.0940352
1470	0.0818406
1482	0.0585552
1494	0.0373723
1506	0.0223393
1518	0.0141394
1530	0.0107754
1542	0.0066755
1554	0.00704344
1566	0.00735882
1578	0.00688575
1590	0.00862033
1602	0.00741138
1614	0.00725369
1626	0.00741138
1638	0.00620243
1650	0.00835752
1662	0.00620243
1674	0.00704344
1686	0.00562424
1698	0.00641269
1710	0.00609731
1722	0.006255
1734	0.00520374
1746	0.00657037
1758	0.00546655
1770	0.00457298
1782	0.00488836
1794	0.00388966
1806	0.00446785
1818	0.00399479
1830	0.00499348
1842	0.00520374
1854	0.00452042
1866	0.00499348
1878	0.0048358
1890	0.00462554
1902	0.00504605
1914	0.00509861
1926	0.00473067
1938	0.00446785
1950	0.00394222
1962	0.00409991
1974	0.00388966
1986	0.0038371
1998	0.00399479
2010	0.00378454
2022	0.00420504
2034	0.00415248
2046	0.00457298
2058	0.00446785
2070	0.00473067
2082	0.00457298
2094	0.00441529
2106	0.00446785
2118	0.00457298
2130	0.00462554
2142	0.00457298
2154	0.0042576
2166	0.00457298
2178	0.00457298
2190	0.00473067
2202	0.00473067
2214	0.00462554
2226	0.00478323
2238	0.00509861
2250	0.00520374
2262	0.00488836
2274	0.00467811
2286	0.00494092
2298	0.00467811
2310	0.00473067
2322	0.0048358
2334	0.00431017
2346	0.00515117
2358	0.00378454
2370	0.00446785
2382	0.00409991
2394	0.00415248
2406	0.00415248
2418	0.00441529
2430	0.00431017
2442	0.00446785
2454	0.00436273
2466	0.00388966
2478	0.00394222
2490	0.00394222
2502	0.00388966
2514	0.0042576
2526	0.00409991
2538	0.00409991
2550	0.00420504
2562	0.00378454
2574	0.00304865
2586	0.00378454
2598	0.00346916
2610	0.00367941
2622	0.00315378
2634	0.00394222
2646	0.0042576
2658	0.0048358
2670	0.00572937
2682	0.00609731
2694	0.00651781
2706	0.00672806
2718	0.00693832
2730	0.007096
2742	0.00846264
2754	0.0101972
2766	0.0101972
2778	0.0095139
2790	0.0101447
2802	0.011669
2814	0.0134036
2826	0.0176086
2838	0.0271225
2850	0.0480951
2862	0.0695934
2874	0.110803
2886	0.147124
2898	0.165994
2910	0.154535
2922	0.164102
2934	0.216454
2946	0.278689
2958	0.362527
2970	0.436168
2982	0.451516
2994	0.381923
3006	0.221343
3018	0.106335
3030	0.0498823
3042	0.0241264
3054	0.0155061
3066	0.0131407
3078	0.0122997
3090	0.0130356
3102	0.0126677
3114	0.0118792
3126	0.00925109
3138	0.00793701
3150	0.00777932
3162	0.00846264
3174	0.00898827
3186	0.00851521
3198	0.00762163
3210	0.00672806
3222	0.00609731
3234	0.00488836
3246	0.00441529
3258	0.00404735
3270	0.00415248
3282	0.00367941
3294	0.00331147
3306	0.00357428
3318	0.00373197
3330	0.00404735
3342	0.00431017
3354	0.00467811
3366	0.00478323
3378	0.00478323
3390	0.00494092
3402	0.00494092
3414	0.00452042
3426	0.00478323
3438	0.00431017
3450	0.00446785
3462	0.00452042
3474	0.00362685
3486	0.00462554
3498	0.00473067
3510	0.00431017
3522	0.00378454
3534	0.00446785
3546	0.00415248
3558	0.00541399
3570	0.00446785
3582	0.00436273
3594	0.00478323
3606	0.00520374
3618	0.00473067
3630	0.00378454
3642	0.00467811
3654	0.00604474
3666	0.00593962
3678	0.00457298
3690	0.00488836
3702	0.00578193
3714	0.00541399
3726	0.00609731
3738	0.00509861
3750	0.00593962
3762	0.00583449
3774	0.00530886
3786	0.00509861
3798	0.00509861
3810	0.00583449
3822	0.00431017
3834	0.0052563
3846	0.00473067
3858	0.00494092
3870	0.00478323
3882	0.00431017
3894	0.00457298
3906	0.00431017
3918	0.00420504
3930	0.00546655
3942	0.00551911
3954	0.00509861
3966	0.00583449
