Infrared Spectrum: Ethane, bromo-,
Formula: C2 H5 Br
CAS: 74-96-4
State: LIQUID (NEAT)
Boiling point: 38 C
Class: COBLENTZ III
Instrument: BAIRD (GRATING)
Instrument parameters: NaCl PRISM
Path length: 0.0015 CM
Resolution: 2
Origin: WYANDOTTE CHEMICALS CORP.
1/CM	TRANSMITTANCE
626	0.7506
635	0.7803
644	0.8126
653	0.8239
662	0.8223
671	0.8378
680	0.8558
689	0.8911
698	0.922
707	0.9175
716	0.8958
725	0.8535
734	0.7868
743	0.6813
752	0.5588
761	0.4144
770	0.1416
779	0.3649
788	0.472
797	0.6015
806	0.7263
815	0.8135
824	0.8828
833	0.9206
842	0.933
851	0.9375
860	0.9371
869	0.9392
878	0.942
887	0.9359
896	0.9264
905	0.9189
914	0.907
923	0.8643
932	0.7383
941	0.3003
950	0.0141
959	0.0102
968	0.0137
977	0.0196
986	0.3477
995	0.5437
1004	0.5852
1013	0.6013
1022	0.5923
1031	0.6835
1040	0.7699
1049	0.8265
1058	0.7981
1067	0.7875
1076	0.8438
1085	0.8931
1094	0.9302
1103	0.9548
1112	0.9416
1121	0.9242
1130	0.9174
1139	0.9205
1148	0.9083
1157	0.8943
1166	0.8958
1175	0.8831
1184	0.8514
1193	0.8092
1202	0.7467
1211	0.6186
1220	0.448
1229	0.14
1238	0.0094
1247	0.0112
1256	0.0086
1265	0.0085
1274	0.01
1283	0.056
1292	0.2775
1301	0.613
1310	0.7272
1319	0.7981
1328	0.8257
1337	0.8284
1346	0.8057
1355	0.7433
1364	0.6441
1373	0.3386
1382	0.0851
1391	0.1682
1400	0.1223
1409	0.2103
1418	0.202
1427	0.1326
1436	0.0683
1445	0.0213
1454	0.0158
1463	0.0393
1472	0.0762
1481	0.1305
1490	0.1921
1499	0.3396
1508	0.5188
1517	0.6339
1526	0.6885
1535	0.7345
1544	0.7433
1553	0.7736
1562	0.7932
1571	0.8282
1580	0.8536
1589	0.8608
1598	0.861
1607	0.8591
1616	0.8547
1625	0.8488
1634	0.8483
1643	0.853
1652	0.849
1661	0.846
1670	0.8483
1679	0.8424
1688	0.8424
1697	0.8481
1706	0.857
1715	0.8713
1724	0.886
1733	0.8979
1742	0.9066
1751	0.9218
1760	0.9344
1769	0.9344
1778	0.9301
1787	0.9289
1796	0.9322
1805	0.9365
1814	0.9407
1823	0.9444
1832	0.9493
1841	0.9507
1850	0.951
1859	0.9506
1868	0.9486
1877	0.9411
1886	0.9221
1895	0.8743
1904	0.8263
1913	0.8469
1922	0.8847
1931	0.9213
1940	0.9244
1949	0.9206
1958	0.9188
1967	0.9159
1976	0.8925
1985	0.8801
1994	0.8856
2003	0.8943
2012	0.9054
2021	0.9158
2030	0.924
2039	0.9268
2048	0.9281
2057	0.9287
2066	0.9281
2075	0.9266
2084	0.922
2093	0.915
2102	0.9128
2111	0.9127
2120	0.9122
2129	0.9087
2138	0.8945
2147	0.8316
2156	0.7678
2165	0.7045
2174	0.6882
2183	0.7035
2192	0.7458
2201	0.7877
2210	0.8294
2219	0.8703
2228	0.8876
2237	0.8913
2246	0.8972
2255	0.9025
2264	0.9011
2273	0.8983
2282	0.8915
2291	0.8792
2300	0.8708
2309	0.8688
2318	0.8683
2327	0.8671
2336	0.8656
2345	0.8638
2354	0.8574
2363	0.8448
2372	0.8307
2381	0.824
2390	0.8172
2399	0.784
2408	0.7143
2417	0.7132
2426	0.715
2435	0.7306
2444	0.7537
2453	0.7725
2462	0.7834
2471	0.8099
2480	0.8189
2489	0.8217
2498	0.8265
2507	0.8386
2516	0.8572
2525	0.8662
2534	0.8695
2543	0.8717
2552	0.8736
2561	0.8728
2570	0.8709
2579	0.865
2588	0.8587
2597	0.8572
2606	0.8552
2615	0.8463
2624	0.8382
2633	0.8347
2642	0.8296
2651	0.8199
2660	0.7876
2669	0.763
2678	0.7258
2687	0.6958
2696	0.7082
2705	0.719
2714	0.7078
2723	0.6869
2732	0.6696
2741	0.6674
2750	0.7118
2759	0.7775
2768	0.7775
2777	0.774
2786	0.7585
2795	0.7181
2804	0.6793
2813	0.6322
2822	0.5856
2831	0.5626
2840	0.5568
2849	0.2494
2858	0.0706
2867	0.0438
2876	0.0437
2885	0.0785
2894	0.1151
2903	0.1248
2912	0.0973
2921	0.0681
2930	0.0391
2939	0.0119
2948	0.0079
2957	0.0081
2966	0.0085
2975	0.0085
2984	0.0057
2993	0.0082
3002	0.008
3011	0.0075
3020	0.0067
3029	0.0056
3038	0.211
3047	0.313
3056	0.4142
3065	0.5149
3074	0.6149
3083	0.7155
3092	0.7901
3101	0.7967
3110	0.7984
3119	0.7994
3128	0.7992
3137	0.7979
3146	0.7951
3155	0.7839
3164	0.7628
3173	0.7418
3182	0.721
3191	0.7002
3200	0.6796
3209	0.6731
3218	0.686
3227	0.6977
3236	0.7055
3245	0.7134
3254	0.7526
3263	0.8086
3272	0.8328
3281	0.8393
3290	0.8422
3299	0.8433
3308	0.8438
3317	0.8441
3326	0.844
3335	0.8436
3344	0.8422
3353	0.8411
3362	0.8404
3371	0.8408
3380	0.842
3389	0.8442
3398	0.8473
3407	0.8512
3416	0.8563
3425	0.8614
3434	0.8641
3443	0.866
3452	0.8676
3461	0.869
3470	0.8704
3479	0.8716
3488	0.8722
3497	0.8729
3506	0.8734
3515	0.8742
3524	0.8749
3533	0.8757
3542	0.8765
3551	0.8775
3560	0.8787
3569	0.8798
3578	0.8811
3587	0.8826
3596	0.8855
3605	0.8908
3614	0.8992
3623	0.9065
3632	0.9093
3641	0.9104
3650	0.9106
3659	0.9106
3668	0.9098
3677	0.909
3686	0.9076
3695	0.9061
3704	0.9044
3713	0.9017
3722	0.8991
3731	0.8965
3740	0.8953
3749	0.894
3758	0.8929
3767	0.8918
3776	0.8909
3785	0.8903
3794	0.8904
3803	0.8906
3812	0.891
3821	0.8921
3830	0.8933
3839	0.8945
3848	0.8956
3857	0.8965
3866	0.8971
3875	0.8971
3884	0.8969
3893	0.8963
3902	0.8956
3911	0.8946
3920	0.893
3929	0.8913
3938	0.8897
3947	0.8877
3956	0.8852
3965	0.8827
3974	0.8802
3983	0.8776
3992	0.8747
