Infrared Spectrum: ETHANE, BROMO-
Formula: C2 H5 Br
CAS: 74-96-4
State: LIQUID (NEAT)
Class: COBLENTZ III
Instrument: DOW KBr FOREPRISM-GRATING
Instrument parameters: BLAZED AT 3.5, 12.0, 20.0 MICRON, CHANGED AT 5.0, 7.5, 14.9 MICRON
Sampling: TRANSMISSION
Path length: 0.011 CM
Resolution: 4
Origin: DOW CHEMICAL COMPANY
1/CM	TRANSMITTANCE
449.565	0.985
458.261	0.985
466.956	0.986
475.652	0.985
484.348	0.979
493.043	0.968
501.739	0.941
510.435	0.913
519.13	0.858
527.826	0.767
536.522	0.591
545.217	0.26
553.913	0.009
562.609	0.001
571.304	0.018
580	0.355
588.695	0.672
597.391	0.838
606.087	0.922
614.782	0.968
623.478	0.997
632.174	1.012
640.869	1.024
649.565	1.021
658.261	1.008
666.956	0.994
675.652	0.981
684.348	0.993
693.043	0.991
701.739	0.982
710.435	0.963
719.13	0.941
727.826	0.906
736.522	0.85
745.217	0.766
753.913	0.584
762.609	0.251
771.304	0.031
780	0.249
788.696	0.538
797.391	0.706
806.087	0.796
814.783	0.871
823.478	0.921
832.174	0.952
840.869	0.966
849.565	0.967
858.261	0.981
866.956	0.991
875.652	0.99
884.348	0.976
893.043	0.949
901.739	0.94
910.435	0.911
919.13	0.849
927.826	0.746
936.522	0.493
945.217	0.122
953.913	0.008
962.609	0.008
971.304	0.046
980	0.291
988.696	0.469
997.391	0.564
1006.09	0.62
1014.78	0.655
1023.48	0.693
1032.17	0.769
1040.87	0.824
1049.57	0.818
1058.26	0.758
1066.96	0.778
1075.65	0.881
1084.35	0.918
1093.04	0.936
1101.74	0.947
1110.43	0.949
1119.13	0.953
1127.83	0.964
1136.52	0.955
1145.22	0.94
1153.91	0.914
1162.61	0.906
1171.3	0.875
1180	0.812
1188.7	0.753
1197.39	0.66
1206.09	0.525
1214.78	0.363
1223.48	0.103
1232.17	0.01
1240.87	0.008
1249.57	0.009
1258.26	0.01
1266.96	0.014
1275.65	0.065
1284.35	0.279
1293.04	0.502
1301.74	0.64
1310.43	0.71
1319.13	0.758
1327.83	0.782
1336.52	0.774
1345.22	0.743
1353.91	0.675
1362.61	0.515
1371.3	0.1449
1380	0.016
1388.7	0.103
1397.39	0.249
1406.09	0.245
1414.78	0.185
1423.48	0.085
1432.17	0.027
1440.87	0.008
1449.57	0.013
1458.26	0.029
1466.96	0.147
1475.65	0.291
1484.35	0.416
1493.04	0.525
1501.74	0.599
1510.43	0.648
1519.13	0.659
1527.83	0.706
1536.52	0.757
1545.22	0.778
1553.91	0.835
1562.61	0.894
1571.3	0.914
1580	0.932
1588.7	0.937
1597.39	0.932
1606.09	0.917
1614.78	0.921
1623.48	0.932
1632.17	0.952
1640.87	0.972
1649.57	0.975
1658.26	0.951
1666.96	0.925
1675.65	0.917
1684.35	0.911
1693.04	0.902
1701.74	0.91
1710.43	0.917
1719.13	0.932
1727.83	0.941
1736.52	0.945
1745.22	0.949
1753.91	0.957
1762.61	0.966
1771.3	0.967
1780	0.966
1788.7	0.959
1797.39	0.957
1806.09	0.964
1814.78	0.968
1823.48	0.971
1832.17	0.974
1840.87	0.976
1849.57	0.976
1858.26	0.976
1866.96	0.975
1875.65	0.972
1884.35	0.967
1893.04	0.956
1901.74	0.926
1910.44	0.864
1919.13	0.77
1927.83	0.846
1936.52	0.928
1945.22	0.944
1953.91	0.957
1962.61	0.972
1971.3	0.953
1980	0.948
1988.7	0.943
1997.39	0.914
2006.09	0.9115
2014.78	0.931
2023.48	0.9465
2032.17	0.96
2040.87	0.9565
2049.57	0.9635
2058.26	0.967
2066.96	0.966
2075.65	0.966
2084.35	0.963
2093.04	0.9625
2101.74	0.96
2110.44	0.954
2119.13	0.9275
2127.83	0.9465
2136.52	0.949
2145.22	0.939
2153.91	0.937
2162.61	0.9335
2171.3	0.9165
2180	0.8885
2188.7	0.8216
2197.39	0.701
2206.09	0.656
2214.78	0.709
2223.48	0.8032
2232.17	0.871
2240.87	0.898
2249.57	0.907
2258.26	0.907
2266.96	0.9105
2275.65	0.9215
2284.35	0.9295
2293.04	0.932
2301.74	0.93
2310.44	0.9255
2319.13	0.9165
2327.83	0.8826
2336.52	0.8305
2345.22	0.9069
2353.91	0.923
2362.61	0.925
2371.3	0.924
2380	0.918
2388.7	0.898
2397.39	0.866
2406.09	0.867
2414.78	0.8595
2423.48	0.824
2432.17	0.6847
2440.87	0.7414
2449.57	0.819
2458.26	0.7925
2466.96	0.7964
2475.65	0.848
2484.35	0.8645
2493.04	0.87
2501.74	0.874
2510.44	0.892
2519.13	0.908
2527.83	0.9185
2536.52	0.9255
2545.22	0.9285
2553.91	0.929
2562.61	0.928
2571.3	0.926
2580	0.926
2588.7	0.9255
2597.39	0.923
2606.09	0.918
2614.78	0.9135
2623.48	0.9025
2632.17	0.891
2640.87	0.8955
2649.57	0.893
2658.26	0.876
2666.96	0.8385
2675.65	0.7871
2684.35	0.7625
2693.04	0.761
2701.74	0.7865
2710.44	0.817
2719.13	0.819
2727.83	0.7756
2736.52	0.6565
2745.22	0.7938
2753.91	0.8265
2762.61	0.841
2771.3	0.8385
2780	0.833
2788.7	0.8185
2797.39	0.7955
2806.09	0.751
2814.78	0.6826
2823.48	0.6191
2832.17	0.5669
2840.87	0.5865
2849.57	0.4848
2858.26	0.1948
2866.96	0.02
2875.65	0.0819
2884.35	0.1555
2893.04	0.1515
2901.74	0.1496
2910.44	0.094
2919.13	0.0136
2927.83	0.012
2936.52	0.0469
2945.22	0.059
2953.91	0.0276
2962.61	0.005
2971.3	0.004
2980	0.006
2988.7	0.009
2997.39	0.0145
3006.09	0.0375
3014.78	0.0325
3023.48	0.0449
3032.17	0.2248
3040.87	0.3782
3049.57	0.484
3058.26	0.5749
3066.96	0.6475
3075.65	0.6899
3084.35	0.729
3093.04	0.749
3101.74	0.767
3110.44	0.7815
3119.13	0.7895
3127.83	0.7955
3136.52	0.8
3145.22	0.8
3153.91	0.799
3162.61	0.796
3171.31	0.7955
3180	0.793
3188.7	0.787
3197.39	0.7735
3206.09	0.741
3214.78	0.714
3223.48	0.73
3232.17	0.748
3240.87	0.7615
3249.57	0.7615
3258.26	0.7585
3266.96	0.783
3275.65	0.8215
3284.35	0.853
3293.04	0.8715
3301.74	0.882
3310.44	0.89
3319.13	0.894
3327.83	0.894
3336.52	0.894
3345.22	0.894
3353.91	0.896
3362.61	0.894
3371.31	0.891
3380	0.8945
3388.7	0.896
3397.39	0.894
3406.09	0.89
3414.78	0.881
3423.48	0.8765
3432.17	0.875
3440.87	0.873
3449.57	0.872
3458.26	0.871
3466.96	0.868
3475.65	0.862
3484.35	0.861
3493.04	0.861
3501.74	0.86
3510.44	0.8545
3519.13	0.8415
3527.83	0.8295
3536.52	0.8265
3545.22	0.834
3553.91	0.8415
3562.61	0.8385
3571.31	0.8295
3580	0.8235
3588.7	0.8345
3597.39	0.8495
3606.09	0.854
3614.78	0.856
3623.48	0.8535
3632.17	0.852
3640.87	0.8485
3649.57	0.8395
3658.26	0.825
3666.96	0.816
3675.65	0.816
3684.35	0.8265
3693.04	0.834
3701.74	0.8355
3710.44	0.839
3719.13	0.8345
3727.83	0.8295
3736.52	0.817
3745.22	0.823
3753.91	0.8375
3762.61	0.8345
3771.31	0.831
3780	0.8345
3788.7	0.842
3797.39	0.8385
