Infrared Spectrum: Ethane, bromo-
Formula: C 2 H 5 Br
CAS: 74-96-4
State: gas
Origin: Sadtler Research Labs Under US-EPA Contract
1/CM	ABSORBANCE
450	0.0150425
462	0.00838083
474	0.00401134
486	0.00787941
498	0.00644679
510	0.00522906
522	0.00616027
534	0.0249276
546	0.0878912
558	0.20995
570	0.219692
582	0.272198
594	0.0178361
606	0.0126787
618	0.0111744
630	0.00121773
642	0.00408297
654	0.00608864
666	0.00501417
678	0.000358155
690	0.0108163
702	0.00659005
714	0.00766452
726	0.00967019
738	0.0193404
750	0.0228503
762	0.0313027
774	0.0318042
786	0.0318042
798	0.024856
810	0.019412
822	0.0105298
834	0.00787941
846	0.00451275
858	0.00286524
870	0.00193404
882	0.00350992
894	0.00408297
906	0.0039397
918	0.00737799
930	0.0265751
942	0.118478
954	0.200853
966	0.194048
978	0.17127
990	0.0406864
1002	0.0313027
1014	0.0231368
1026	0.0126787
1038	0.0102432
1050	0.0071631
1062	0.0050858
1074	0.006017
1086	0.00365318
1098	0.00272198
1110	0.00544396
1122	0.0020773
1134	0.00329503
1146	0.00279361
1158	0.00408297
1170	0.0030085
1182	0.00773615
1194	0.0128936
1206	0.0275063
1218	0.0942664
1230	0.324918
1242	0.555785
1254	0.71631
1266	0.52835
1278	0.263889
1290	0.0598835
1302	0.0165468
1314	0.00995671
1326	0.00687658
1338	0.0071631
1350	0.0136099
1362	0.0250709
1374	0.0503566
1386	0.0495687
1398	0.0929054
1410	0.0811579
1422	0.0941231
1434	0.104223
1446	0.111816
1458	0.0933352
1470	0.0830203
1482	0.0648977
1494	0.0416176
1506	0.0260737
1518	0.0150425
1530	0.0116759
1542	0.00945529
1554	0.00759289
1566	0.00587374
1578	0.00479928
1590	0.00315176
1602	0.00358155
1614	0.00472765
1626	0.00451275
1638	0.00408297
1650	0.00515743
1662	0.00494254
1674	0.00472765
1686	0.006017
1698	0.0050858
1710	0.00408297
1722	0.00329503
1734	0.00164751
1746	0.000644679
1758	0.00107447
1770	0.00100283
1782	0.00136099
1794	0.00100283
1806	0.00200567
1818	0.00107447
1830	0.00143262
1842	0.00100283
1854	0.00107447
1866	0.00100283
1878	0.00107447
1890	0.00164751
1902	0.00379644
1914	0.00580211
1926	0.00616027
1938	0.00458438
1950	0.00272198
1962	0.00236382
1974	0.00179078
1986	0.00308013
1998	0.00401134
2010	0.00429786
2022	0.00379644
2034	0.00279361
2046	0.00193404
2058	0.00200567
2070	0.00214893
2082	0.00171914
2094	0.00171914
2106	0.00171914
2118	0.0020773
2130	0.00222056
2142	0.00164751
2154	0.00265035
2166	0.00343829
2178	0.00494254
2190	0.00752126
2202	0.0100283
2214	0.0128219
2226	0.00859572
2238	0.00701984
2250	0.00444112
2262	0.00315176
2274	0.00243545
2286	0.0020773
2298	0.00250709
2310	0.00472765
2322	0.00766452
2334	0.0130368
2346	0.0113893
2358	0.0127503
2370	0.0105298
2382	0.00451275
2394	0.00422623
2406	0.00530069
2418	0.00594537
2430	0.0092404
2442	0.00881061
2454	0.0112461
2466	0.00573048
2478	0.00630353
2490	0.00501417
2502	0.00372481
2514	0.00272198
2526	0.00171914
2538	0.00157588
2550	0.000644679
2562	0.000787941
2574	0.00128936
2586	0.00121773
2598	0.00157588
2610	0.00128936
2622	0.00128936
2634	0.00164751
2646	0.0030085
2658	0.00336666
2670	0.00472765
2682	0.00780778
2694	0.00995671
2706	0.0103865
2718	0.00823757
2730	0.00931203
2742	0.0107447
2754	0.0126071
2766	0.00881061
2778	0.00472765
2790	0.00580211
2802	0.0080943
2814	0.0108163
2826	0.0167617
2838	0.0209879
2850	0.0265751
2862	0.0594537
2874	0.136958
2886	0.129151
2898	0.129294
2910	0.0902551
2922	0.241826
2934	0.231225
2946	0.340964
2958	0.23674
2970	0.292469
2982	0.350634
2994	0.408655
3006	0.344688
3018	0.250709
3030	0.177143
3042	0.121056
3054	0.0760005
3066	0.0414027
3078	0.0201999
3090	0.0121056
3102	0.00744962
3114	0.00637516
3126	0.00616027
3138	0.00501417
3150	0.00637516
3162	0.00737799
3174	0.00845246
3186	0.0080943
3198	0.00945529
3210	0.011461
3222	0.011461
3234	0.0123922
3246	0.00959855
3258	0.00952692
3270	0.00651842
3282	0.00587374
3294	0.0020773
3306	0.0011461
3318	0.0011461
3330	0.0011461
3342	0.00143262
3354	0.00107447
3366	0.00121773
3378	0.00164751
3390	0.00222056
3402	0.00186241
3414	0.00107447
3426	0.000573048
3438	0.00164751
3450	0.00236382
3462	0.00179078
3474	0.00193404
3486	0.000787941
3498	0.000644679
3510	0.00107447
3522	0.000931203
3534	0.00214893
3546	0.00071631
3558	0.00308013
3570	0.00107447
3582	0.00150425
3594	0.00179078
3606	0.00164751
3618	0.000859572
3630	0.00107447
3642	0.00222056
3654	0.00128936
3666	0.00293687
3678	0.00214893
3690	0.00257872
3702	0.00179078
3714	0.00179078
3726	0.00329503
3738	0.00308013
3750	0.00465602
3762	0.00530069
3774	0.00408297
3786	0.00350992
3798	0.00293687
3810	0.00279361
3822	0.0032234
3834	0.00365318
3846	0.00408297
3858	0.00515743
3870	0.00479928
3882	0.00422623
3894	0.00472765
3906	0.00616027
3918	0.00537233
3930	0.00386807
3942	0.00537233
3954	0
3966	0.000286524
