Infrared Spectrum: Ethane, (chloromethoxy)-
Formula: C 3 H 7 Cl O
CAS: 3188-13-4
State: gas
Origin: Sadtler Research Labs Under US-EPA Contract
1/CM	ABSORBANCE
450	0.00517633
462	0.00373846
474	0.00503255
486	0.0143787
498	0.0169669
510	0.0123657
522	0.0100651
534	0
546	0.00589527
558	0.00589527
570	0.00733314
582	0.0178296
594	0.0178296
606	0.0241562
618	0.0481686
630	0.0684426
642	0.134728
654	0.357886
666	0.740647
678	0.805207
690	0.354291
702	0.126676
714	0.0503255
726	0.0313456
738	0.0247314
750	0.0109278
762	0.0104965
774	0.0120781
786	0.0117905
798	0.0162479
810	0.0253065
822	0.0422734
834	0.0694491
846	0.0842592
858	0.0713184
870	0.0405479
882	0.0198426
894	0.0158166
906	0.0230059
918	0.0346527
930	0.0385349
942	0.0369533
954	0.0342213
966	0.0379598
978	0.0612533
990	0.103239
1002	0.130415
1014	0.136598
1026	0.13631
1038	0.130702
1050	0.195838
1062	0.195838
1074	0.134728
1086	0.179446
1098	0.342644
1110	0.66142
1122	0.959491
1134	1.31939
1146	1.34498
1158	0.827926
1170	0.428054
1182	0.298789
1194	0.208347
1206	0.123657
1218	0.083684
1230	0.0736189
1242	0.083684
1254	0.153277
1266	0.153565
1278	0.0822462
1290	0.066142
1302	0.099213
1314	0.17844
1326	0.174414
1338	0.0983503
1350	0.0441426
1362	0.0301953
1374	0.0406917
1386	0.0759195
1398	0.117905
1410	0.0989255
1422	0.043855
1434	0.0395414
1446	0.0498941
1458	0.0586651
1470	0.059384
1482	0.0524823
1494	0.0383911
1506	0.028326
1518	0.0153852
1530	0.0113592
1542	0.0112154
1554	0.00747692
1566	0.00747692
1578	0.00733314
1590	0.00690178
1602	0.0066142
1614	0.00675799
1626	0.00704556
1638	0.00819586
1650	0.00877101
1662	0.00948994
1674	0.013516
1686	0.015529
1698	0.0201302
1710	0.0215681
1722	0.0199864
1734	0.0208491
1746	0.0529136
1758	0.0319207
1770	0.0301953
1782	0.0238686
1794	0.0182609
1806	0.0104965
1818	0.00790829
1830	0.00589527
1842	0.0033071
1854	0.0033071
1866	0.00301953
1878	0.00287574
1890	0.00301953
1902	0.00273195
1914	0.00345089
1926	0.00416982
1938	0.0066142
1950	0.0103527
1962	0.0116467
1974	0.0119343
1986	0.0145225
1998	0.0132284
2010	0.00747692
2022	0.00503255
2034	0.00402604
2046	0.00373846
2058	0.00287574
2070	0.00287574
2082	0.00316331
2094	0.00488876
2106	0.00647042
2118	0.00877101
2130	0.00948994
2142	0.00877101
2154	0.00963373
2166	0.0112154
2178	0.00905858
2190	0.00546391
2202	0.00474497
2214	0.00416982
2226	0.00517633
2238	0.00690178
2250	0.00905858
2262	0.011503
2274	0.0140911
2286	0.0129408
2298	0.00862722
2310	0.00460118
2322	0.0033071
2334	0.00345089
2346	0.0033071
2358	0.00345089
2370	0.00460118
2382	0.00359468
2394	0.00287574
2406	0.00287574
2418	0.00273195
2430	0.00287574
2442	0.00215681
2454	0.00143787
2466	0.000862722
2478	0.000431361
2490	0.000431361
2502	0.000431361
2514	0.000143787
2526	0.000143787
2538	0.000143787
2550	0.000143787
2562	0
2574	0.000575148
2586	0.00100651
2598	0.00186923
2610	0.00287574
2622	0.00460118
2634	0.00488876
2646	0.00416982
2658	0.00359468
2670	0.00460118
2682	0.00460118
2694	0.00517633
2706	0.00848343
2718	0.0103527
2730	0.0207053
2742	0.0238686
2754	0.0335024
2766	0.0333586
2778	0.0412669
2790	0.0289012
2802	0.0511882
2814	0.0402604
2826	0.0455805
2838	0.0439988
2850	0.0598154
2862	0.100507
2874	0.166937
2886	0.239549
2898	0.263274
2910	0.23236
2922	0.217262
2934	0.244294
2946	0.289443
2958	0.266869
2970	0.249758
2982	0.312881
2994	0.317769
3006	0.218412
3018	0.134585
3030	0.0923113
3042	0.061397
3054	0.031058
3066	0.015529
3078	0.00920237
3090	0.00891479
3102	0.0077645
3114	0.00848343
3126	0.00546391
3138	0.00373846
3150	0.00359468
3162	0.0033071
3174	0.00287574
3186	0.00359468
3198	0.00373846
3210	0.00431361
3222	0.00402604
3234	0.00316331
3246	0.00244438
3258	0.00172544
3270	0.00129408
3282	0.00143787
3294	0.00158166
3306	0.0011503
3318	0.00129408
3330	0.00143787
3342	0.00100651
3354	0.000862722
3366	0.000431361
3378	0.000718935
3390	0.0011503
3402	0.00201302
3414	0.000862722
3426	0.00158166
3438	0.00201302
3450	0.00230059
3462	0.00129408
3474	0.00143787
3486	0.000862722
3498	0.00273195
3510	0.00158166
3522	0.00143787
3534	0.000862722
3546	0.000143787
3558	0.000718935
3570	0.000862722
3582	0.000575148
3594	0.00215681
3606	0.0011503
3618	0.00172544
3630	0.00359468
3642	0.00230059
3654	0.00359468
3666	0.00301953
3678	0.00546391
3690	0.00474497
3702	0.00474497
3714	0.00474497
3726	0.0044574
3738	0.00373846
3750	0.00388225
3762	0.00388225
3774	0.00431361
3786	0.00373846
3798	0.00359468
3810	0.0044574
3822	0.00560769
3834	0.00474497
3846	0.0044574
3858	0.00517633
3870	0.00503255
3882	0.00431361
3894	0.0044574
3906	0.00488876
3918	0.00503255
3930	0.00460118
3942	0.00402604
3954	0.00460118
3966	0.00575148
