Infrared Spectrum: Butane, 1,3-dibromo-
Formula: C 4 H 8 Br 2
CAS: 107-80-2
State: gas
Origin: Sadtler Research Labs Under US-EPA Contract
1/CM	ABSORBANCE
450	0.0110076
462	0.0264961
474	0.0526999
486	0.0431535
498	0.0265935
510	0.0398415
522	0.097412
534	0.225606
546	0.195408
558	0.126246
570	0.214209
582	0.241387
594	0.0868915
606	0.0417897
618	0.0752995
630	0.071403
642	0.0515309
654	0.114069
666	0.160925
678	0.0672143
690	0.0706237
702	0.0291262
714	0.0332175
726	0.0103257
738	0.0211384
750	0.0213332
762	0.0654609
774	0.0644867
786	0.192973
798	0.251713
810	0.0441276
822	0.0196772
834	0.0263987
846	0.0325356
858	0.0318537
870	0.0737409
882	0.185472
894	0.089619
906	0.0802675
918	0.0542585
930	0.0558171
942	0.0435432
954	0.0380881
966	0.0805597
978	0.164821
990	0.197746
1002	0.133552
1014	0.0820209
1026	0.0794882
1038	0.0826054
1050	0.0618566
1062	0.0462707
1074	0.0741305
1086	0.0713056
1098	0.0707211
1110	0.109783
1122	0.161217
1134	0.118161
1146	0.12683
1158	0.141734
1170	0.159269
1182	0.219956
1194	0.423547
1206	0.460856
1218	0.646329
1230	0.77988
1242	0.886839
1254	0.271585
1266	0.27139
1278	0.422184
1290	0.285417
1302	0.172517
1314	0.170179
1326	0.112511
1338	0.078027
1350	0.0923466
1362	0.117381
1374	0.132967
1386	0.257265
1398	0.106179
1410	0.0676039
1422	0.147092
1434	0.280839
1446	0.429002
1458	0.276747
1470	0.1468
1482	0.0499724
1494	0.0189953
1506	0.0135403
1518	0.0135403
1530	0.00789037
1542	0.0109101
1554	0.00857226
1566	0.00769555
1578	0.0089619
1590	0.00701366
1602	0.00857226
1614	0.00701366
1626	0.00789037
1638	0.00633178
1650	0.00750072
1662	0.0118843
1674	0.00993602
1686	0.0114946
1698	0.0102283
1710	0.00633178
1722	0.00613696
1734	0.00535766
1746	0.00720849
1758	0.00954638
1770	0.00681884
1782	0.00311718
1794	0.00253271
1806	0.00418872
1818	0.00457836
1830	0.00438354
1842	0.00496801
1854	0.00886449
1866	0.00360424
1878	0.0048706
1890	0.00457836
1902	0.00418872
1914	0.00516284
1926	0.00662402
1938	0.00516284
1950	0.00496801
1962	0.00506542
1974	0.00496801
1986	0.00633178
1998	0.00594213
2010	0.00613696
2022	0.00496801
2034	0.00477319
2046	0.00301977
2058	0.00428613
2070	0.00370166
2082	0.00340942
2094	0.00350683
2106	0.00282495
2118	0.00399389
2130	0.00389648
2142	0.00224048
2154	0.00214306
2166	0.00535766
2178	0.00594213
2190	0.00535766
2202	0.00633178
2214	0.00574731
2226	0.00818261
2238	0.00720849
2250	0.00789037
2262	0.00779296
2274	0.00642919
2286	0.00613696
2298	0.00711108
2310	0.011592
2322	0.0189953
2334	0.0211384
2346	0.0207488
2358	0.0323408
2370	0.022697
2382	0.00993602
2394	0.00467578
2406	0.00613696
2418	0.00613696
2430	0.0080852
2442	0.00818261
2454	0.00798778
2466	0.00789037
2478	0.00613696
2490	0.0040913
2502	0.00623437
2514	0.00750072
2526	0.00633178
2538	0.00428613
2550	0.00418872
2562	0.0048706
2574	0.00477319
2586	0.00516284
2598	0.00574731
2610	0.00584472
2622	0.00662402
2634	0.00720849
2646	0.00672143
2658	0.00789037
2670	0.00837743
2682	0.00886449
2694	0.0065266
2706	0.00915673
2718	0.0124687
2730	0.0119817
2742	0.0181186
2754	0.0205539
2766	0.0104231
2778	0.0105205
2790	0.0135403
2802	0.0121765
2814	0.0225022
2826	0.0416923
2838	0.0508491
2850	0.0602006
2862	0.0902035
2874	0.159853
2886	0.169984
2898	0.179043
2910	0.292333
2922	0.400656
2934	0.495437
2946	0.254732
2958	0.180212
2970	0.454719
2982	0.712179
2994	0.62519
3006	0.305289
3018	0.106569
3030	0.0814364
3042	0.0310744
3054	0.0135403
3066	0.0131506
3078	0.0114946
3090	0.0108127
3102	0.011105
3114	0.0100334
3126	0.0122739
3138	0.00828002
3150	0.00828002
3162	0.00886449
3174	0.0124687
3186	0.0141247
3198	0.01656
3210	0.0184109
3222	0.0133454
3234	0.0134429
3246	0.0101308
3258	0.0106179
3270	0.0141247
3282	0.0112998
3294	0.00993602
3306	0.00633178
3318	0.00545507
3330	0.00535766
3342	0.0056499
3354	0.00662402
3366	0.00769555
3378	0.00526025
3390	0.00574731
3402	0.00711108
3414	0.00662402
3426	0.00769555
3438	0.00681884
3450	0.00701366
3462	0.00798778
3474	0.00496801
3486	0.00847484
3498	0.00399389
3510	0.00263012
3522	0.00603954
3534	0.00798778
3546	0.0065266
3558	0.00603954
3570	0.00623437
3582	0.00467578
3594	0.00574731
3606	0.00584472
3618	0.00555248
3630	0.00535766
3642	0.00866967
3654	0.00506542
3666	0.0080852
3678	0.00866967
3690	0.00915673
3702	0.0116894
3714	0.0107153
3726	0.0138325
3738	0.0118843
3750	0.0145144
3762	0.0163652
3774	0.0189953
3786	0.0192876
3798	0.0191902
3810	0.0205539
3822	0.0220151
3834	0.0231841
3846	0.0212358
3858	0.0223073
3870	0.0223073
3882	0.0247426
3894	0.0234763
3906	0.0238659
3918	0.0211384
3930	0.0218203
3942	0.0235737
3954	0
3966	0.00204565
