Infrared Spectrum: BUTANE, 1,3-DIBROMO-
Formula: C4 H8 Br2
CAS: 107-80-2
State: SOLUTION (10% CCl4 FOR 3800-1330, 10% CS2 FOR 1330-400 CM^-^1)
Class: COBLENTZ III
Instrument: Not specified, most likely a prism, grating, or hybrid spectrometer.
Sampling: TRANSMISSION
Path length: 0.012 CM, 0.011 CM
Resolution: 4
Origin: DOW CHEMICAL COMPANY
1/CM	TRANSMITTANCE
403.042	0.962
412.167	0.962
421.293	0.962
430.418	0.962
439.544	0.96
448.669	0.96
457.795	0.957
466.92	0.957
476.046	0.948
485.171	0.957
494.297	1.019
503.422	1.026
512.548	1.026
521.673	1.005
530.799	0.843
539.924	0.82
549.05	0.9749
558.175	1.005
567.3	0.937
576.426	0.76
585.551	0.996
594.677	1.047
603.802	1.053
612.928	1.033
622.053	1.017
631.179	1.033
640.304	1.017
649.43	0.9451
658.555	0.872
667.681	0.992
676.806	1.001
685.932	1
695.057	1.019
704.183	1.024
713.308	1.026
722.433	1.035
731.559	1.035
740.684	1.03
749.81	1.024
758.935	0.968
768.061	0.994
777.186	1.001
786.312	0.9411
795.437	0.6338
804.563	0.987
813.688	1.023
822.814	1.026
831.939	1.014
841.065	0.976
850.19	0.884
859.315	0.854
868.441	0.87
877.566	0.8031
886.692	0.8359
895.817	0.991
904.943	0.984
914.068	1.01
923.194	1.019
932.319	0.978
941.445	1.008
950.57	1.03
959.696	1.023
968.821	0.968
977.947	0.7481
987.072	0.921
996.198	0.902
1005.32	0.996
1014.45	0.973
1023.57	0.996
1032.7	0.96
1041.82	0.93
1050.95	1.008
1060.08	1.001
1069.2	0.982
1078.33	0.984
1087.45	0.98
1096.58	0.984
1105.7	0.992
1114.83	0.9181
1123.95	0.962
1133.08	0.937
1142.21	0.936
1151.33	0.973
1160.46	0.937
1169.58	0.934
1178.71	0.902
1187.83	0.7992
1196.96	0.5229
1206.08	0.7581
1215.21	0.813
1224.33	0.599
1233.46	0.4592
1242.59	0.6956
1251.71	0.92
1260.84	0.907
1269.96	0.76
1279.09	0.7386
1288.21	0.906
1297.34	0.898
1306.46	0.838
1315.59	0.95
1324.71	0.976
1333.84	0.971
1342.97	0.966
1352.09	0.932
1361.22	0.897
1370.34	0.9179
1379.47	0.5471
1388.59	0.955
1397.72	0.971
1406.84	0.941
1415.97	0.843
1425.09	0.8099
1434.22	0.5
1443.35	0.494
1452.47	0.723
1461.6	0.8199
1470.72	0.916
1479.85	0.923
1488.97	0.904
1498.1	0.87
1507.22	0.7971
1516.35	0.737
1525.47	0.695
1534.6	0.606
1543.73	0.505
1552.85	0.48
1561.98	0.565
1571.1	0.668
1580.23	0.691
1589.35	0.732
1598.48	0.8309
1607.6	0.913
1616.73	0.952
1625.85	0.966
1634.98	0.968
1644.11	0.962
1653.23	0.985
1662.36	0.987
1671.48	0.991
1680.61	0.996
1689.73	0.996
1698.86	0.998
1707.98	1.001
1717.11	1.003
1726.24	0.998
1735.36	0.998
1744.49	1
1753.61	1.001
1762.74	1.001
1771.86	1.001
1780.99	1.001
1790.11	1.001
1799.24	1.001
1808.36	0.998
1817.49	1
1826.62	1
1835.74	1
1844.87	1
1853.99	0.998
1863.12	0.998
1872.24	1
1881.37	1.001
1890.49	1.003
1899.62	1
1908.74	1.001
1917.87	1.003
1927	1.005
1936.12	1.005
1945.25	1.005
1954.37	1.001
1963.5	1.001
1972.62	0.998
1981.75	0.998
1990.87	0.996
2000	1
2009.12	1.001
2018.25	1.003
2027.38	1.003
2036.5	1.005
2045.63	1.005
2054.75	1.005
2063.88	1.007
2073	1.007
2082.13	1.005
2091.25	1.005
2100.38	1.005
2109.5	1.005
2118.63	1.005
2127.76	1.005
2136.88	1.003
2146.01	1.003
2155.13	1.003
2164.26	1.003
2173.38	1.003
2182.51	1.0011
2191.63	1.001
2200.76	1.001
2209.89	1.001
2219.01	0.9961
2228.14	0.998
2237.26	0.996
2246.39	0.994
2255.51	0.9911
2264.64	0.9851
2273.76	0.98
2282.89	0.975
2292.01	0.9751
2301.14	0.978
2310.27	0.982
2319.39	0.9839
2328.52	0.9849
2337.64	0.9868
2346.77	0.987
2355.89	0.989
2365.02	0.991
2374.14	0.992
2383.27	0.9958
2392.39	0.996
2401.52	0.998
2410.65	0.9998
2419.77	1
2428.9	1.001
2438.02	1.001
2447.15	1.001
2456.27	1.001
2465.4	1.001
2474.52	1.001
2483.65	1.001
2492.77	1.001
2501.9	1.001
2511.03	1.001
2520.15	1.001
2529.28	1.001
2538.4	1.001
2547.53	1.001
2556.65	1.001
2565.78	1.001
2574.9	1.001
2584.03	1.001
2593.15	1.001
2602.28	1.001
2611.41	1.001
2620.53	1.001
2629.66	1.001
2638.78	1.001
2647.91	1.001
2657.03	0.9983
2666.16	0.998
2675.28	0.998
2684.41	0.998
2693.53	1
2702.66	0.998
2711.79	0.998
2720.91	0.9963
2730.04	0.9893
2739.16	0.9957
2748.29	0.9997
2757.41	1.001
2766.54	1
2775.66	1
2784.79	1
2793.92	0.9964
2803.04	0.9812
2812.17	0.9682
2821.29	0.9688
2830.42	0.973
2839.54	0.9543
2848.67	0.937
2857.79	0.8683
2866.92	0.8695
2876.04	0.9338
2885.17	0.907
2894.3	0.8021
2903.42	0.8145
2912.55	0.7796
2921.67	0.6636
2930.8	0.8254
2939.92	0.8966
2949.05	0.8673
2958.17	0.7736
2967.3	0.5924
2976.42	0.6458
2985.55	0.7135
2994.68	0.7526
3003.8	0.9302
3012.93	0.957
3022.05	0.978
3031.18	0.9956
3040.3	1
3049.43	1.001
3058.55	1.001
3067.68	1.001
3076.8	1.001
3085.93	1.001
3095.06	1.001
3104.18	1.001
3113.31	1.001
3122.43	1.001
3131.56	1.001
3140.68	1.001
3149.81	1.001
3158.93	1
3168.06	1
3177.18	0.998
3186.31	0.996
3195.44	0.9913
3204.56	0.989
3213.69	0.989
3222.81	0.989
3231.94	0.9885
3241.06	0.9855
3250.19	0.9843
3259.31	0.982
3268.44	0.984
3277.57	0.985
3286.69	0.985
3295.82	0.984
3304.94	0.982
3314.07	0.98
3323.19	0.978
3332.32	0.976
3341.44	0.9736
3350.57	0.9689
3359.69	0.966
3368.82	0.964
3377.95	0.96
3387.07	0.9576
3396.2	0.9556
3405.32	0.955
3414.45	0.955
3423.57	0.9597
3432.7	0.966
3441.82	0.9687
3450.95	0.9757
3460.07	0.9814
3469.2	0.984
3478.33	0.9884
3487.45	0.989
3496.58	0.9917
3505.7	0.9954
3514.83	0.998
3523.95	1
3533.08	1
3542.2	1
3551.33	1.0024
3560.45	1.003
3569.58	1.003
3578.71	1.003
3587.83	1.005
3596.96	1.005
3606.08	1.007
3615.21	1.005
3624.33	1.005
3633.46	1.005
3642.58	1.0063
3651.71	1.008
3660.83	1.008
3669.96	1.008
3679.09	1.008
3688.21	1.008
3697.34	1.008
3706.46	1.008
3715.59	1.008
3724.71	1.008
3733.84	1.01
3742.96	1.012
3752.09	1.012
3761.21	1.012
3770.34	1.012
3779.47	1.0108
