Infrared Spectrum: Pyrazine
Formula: C4 H4 N2
CAS: 290-37-9
State: SOLUTION (10% CCl4 FOR 2.6-7.5, 10% CS2 FOR 7.5-24 MICRON)
Melting point: 53 C
Boiling point: 116 C
Class: COBLENTZ III
Instrument: BECKMAN IR-9 (GRATING)
Instrument parameters: ORDER CHANGES: 670, 1200, 2000 CM^-^1
Sampling: TRANSMISSION
Path length: 0.012 CM, 0.012 CM
Resolution: 2
Origin: DOW CHEMICAL COMPANY
1/CM	TRANSMITTANCE
3800	0.9189
3791	0.9151
3782	0.9138
3773	0.9184
3764	0.9227
3755	0.9266
3746	0.9282
3737	0.9265
3728	0.9212
3719	0.9114
3710	0.92
3701	0.9233
3692	0.9196
3683	0.9192
3674	0.9211
3665	0.923
3656	0.9248
3647	0.9247
3638	0.9244
3629	0.924
3620	0.9247
3611	0.9241
3602	0.9227
3593	0.9232
3584	0.9229
3575	0.9216
3566	0.9206
3557	0.92
3548	0.9209
3539	0.9197
3530	0.9196
3521	0.9175
3512	0.9162
3503	0.9121
3494	0.905
3485	0.8911
3476	0.8768
3467	0.8705
3458	0.8793
3449	0.8922
3440	0.9022
3431	0.9094
3422	0.9113
3413	0.912
3404	0.9119
3395	0.9117
3386	0.913
3377	0.9153
3368	0.9168
3359	0.9173
3350	0.9178
3341	0.9186
3332	0.92
3323	0.9215
3314	0.9218
3305	0.9235
3296	0.9225
3287	0.9226
3278	0.9236
3269	0.9239
3260	0.9239
3251	0.9236
3242	0.9234
3233	0.9231
3224	0.9226
3215	0.9221
3206	0.9202
3197	0.9207
3188	0.9202
3179	0.9176
3170	0.9157
3161	0.9141
3152	0.9108
3143	0.907
3134	0.9039
3125	0.8965
3116	0.885
3107	0.8707
3098	0.8446
3089	0.8164
3080	0.7683
3071	0.4695
3062	0.1074
3053	0.3027
3044	0.5202
3035	0.7387
3026	0.7919
3017	0.7627
3008	0.8069
2999	0.7956
2990	0.8642
2981	0.8584
2972	0.7544
2963	0.664
2954	0.8737
2945	0.8968
2936	0.8993
2927	0.9097
2918	0.9145
2909	0.9168
2900	0.917
2891	0.9178
2882	0.9209
2873	0.9224
2864	0.9223
2855	0.9222
2846	0.9221
2837	0.9213
2828	0.9158
2819	0.911
2810	0.918
2801	0.9231
2792	0.9227
2783	0.9205
2774	0.9186
2765	0.9165
2756	0.9147
2747	0.9128
2738	0.9123
2729	0.9129
2720	0.9142
2711	0.9162
2702	0.9202
2693	0.9243
2684	0.9273
2675	0.9296
2666	0.9321
2657	0.9343
2648	0.9343
2639	0.9341
2630	0.9346
2621	0.936
2612	0.9363
2603	0.9373
2594	0.9396
2585	0.9415
2576	0.9421
2567	0.9427
2558	0.9435
2549	0.9442
2540	0.9448
2531	0.9441
2522	0.9397
2513	0.9331
2504	0.933
2495	0.9377
2486	0.9381
2477	0.9367
2468	0.9347
2459	0.9324
2450	0.9355
2441	0.9433
2432	0.9461
2423	0.9457
2414	0.9453
2405	0.9467
2396	0.9478
2387	0.951
2378	0.9584
2369	0.9609
2360	0.9581
2351	0.958
2342	0.9544
2333	0.949
2324	0.9479
2315	0.9403
2306	0.9302
2297	0.9139
2288	0.9326
2279	0.942
2270	0.9457
2261	0.9494
2252	0.9517
2243	0.9532
2234	0.9527
2225	0.9534
2216	0.951
2207	0.9502
2198	0.9493
2189	0.9475
2180	0.947
2171	0.9479
2162	0.9462
2153	0.9459
2144	0.9455
2135	0.9451
2126	0.9441
2117	0.9425
2108	0.9402
2099	0.9359
2090	0.9309
2081	0.9216
2072	0.9113
2063	0.9251
2054	0.9359
2045	0.9362
2036	0.9371
2027	0.9378
2018	0.9374
2009	0.9345
2000	0.9241
1991	0.9245
1982	0.9217
1973	0.9176
1964	0.9136
1955	0.8914
1946	0.7661
1937	0.8114
1928	0.9074
1919	0.9168
1910	0.9067
1901	0.852
1892	0.8715
1883	0.9097
1874	0.8947
1865	0.9202
1856	0.92
1847	0.9206
1838	0.9222
1829	0.9262
1820	0.9275
1811	0.9264
1802	0.9227
1793	0.9259
1784	0.9273
1775	0.9153
1766	0.9068
1757	0.872
1748	0.8552
1739	0.8957
1730	0.9049
1721	0.8959
1712	0.8638
1703	0.8304
1694	0.9018
1685	0.9199
1676	0.9211
1667	0.9222
1658	0.9205
1649	0.9197
1640	0.9195
1631	0.9102
1622	0.8746
1613	0.8774
1604	0.8472
1595	0.8156
1586	0.8081
1577	0.8097
1568	0.7584
1559	0.7197
1550	0.8049
1541	0.8598
1532	0.841
1523	0.8598
1514	0.8818
1505	0.8876
1496	0.8863
1487	0.8224
1478	0.8594
1469	0.8944
1460	0.8907
1451	0.8837
1442	0.8653
1433	0.8275
1424	0.7134
1415	0.1039
1406	0.3265
1397	0.804
1388	0.8556
1379	0.8518
1370	0.9011
1361	0.9083
1352	0.9046
1343	0.8815
1334	0.8176
1325	0.8769
1316	0.892
1307	0.8932
1298	0.8972
1289	0.8994
1280	0.8987
1271	0.8956
1262	0.8917
1253	0.8779
1244	0.8551
1235	0.8251
1226	0.8347
1217	0.8557
1208	0.863
1199	0.8617
1190	0.8524
1181	0.8249
1172	0.8117
1163	0.7736
1154	0.2869
1145	0.3881
1136	0.5428
1127	0.5038
1118	0.7995
1109	0.7234
1100	0.6659
1091	0.8163
1082	0.8059
1073	0.6123
1064	0.1755
1055	0.6182
1046	0.7571
1037	0.717
1028	0.4124
1019	0.0108
1010	0.5808
1001	0.7583
992	0.8266
983	0.841
974	0.8519
965	0.8635
956	0.8763
947	0.8801
938	0.8783
929	0.8616
920	0.8564
911	0.8805
902	0.8854
893	0.8858
884	0.8833
875	0.8637
866	0.8466
857	0.8701
848	0.8939
839	0.8983
830	0.8683
821	0.838
812	0.7577
803	0.7467
794	0.323
785	0.0116
776	0.5413
767	0.7946
758	0.8609
749	0.8884
740	0.8986
731	0.8993
722	0.8998
713	0.898
704	0.903
695	0.9177
686	0.9217
677	0.9225
668	0.927
659	0.8868
650	0.9114
641	0.9284
632	0.9282
623	0.9275
614	0.9303
605	0.923
596	0.9268
587	0.934
578	0.9352
569	0.9333
560	0.9299
551	0.9265
542	0.9246
533	0.9235
524	0.919
515	0.9118
506	0.9032
497	0.894
488	0.8818
479	0.8677
470	0.8404
461	0.7951
452	0.735
443	0.6694
434	0.5908
425	0.2696
416	0.0872
