Infrared Spectrum: 1-CHLOROBUTANE
Formula: C4 H9 Cl
CAS: 109-69-3
Class: COBLENTZ
Instrument: Not specified, most likely a prism, grating, or hybrid spectrometer.
Sampling: TRANSMISSION
Path length: 0.0025 CM
Resolution: 4
Origin: W.T. BOLLETER
MICROMETERS	TRANSMITTANCE
14.527	0.407
14.5972	0.416
14.6675	0.409
14.7377	0.389
14.8079	0.361
14.8781	0.314
14.9484	0.252
15.0186	0.169
15.0888	0.101
15.159	0.055
15.2293	0.037
15.2995	0.028
15.3697	0.026
15.44	0.03
15.5102	0.037
15.5804	0.051
15.6506	0.109
15.7209	0.162
15.7911	0.237
15.8613	0.313
15.9315	0.389
16.0018	0.447
16.072	0.486
16.1422	0.502
16.2124	0.511
16.2827	0.525
16.3529	0.547
16.4231	0.57
16.4934	0.604
16.5636	0.636
16.6338	0.654
16.704	0.674
16.7743	0.701
16.8445	0.735
16.9147	0.76
16.9849	0.79
17.0552	0.815
17.1254	0.828
17.1956	0.84
17.2659	0.849
17.3361	0.858
17.4063	0.864
17.4765	0.869
17.5468	0.874
17.617	0.881
17.6872	0.885
17.7574	0.892
17.8277	0.901
17.8979	0.906
17.9681	0.914
18.0383	0.919
18.1086	0.923
18.1788	0.926
18.249	0.926
18.3193	0.926
18.3895	0.926
18.4597	0.926
18.5299	0.924
18.6002	0.921
18.6704	0.919
18.7406	0.915
18.8108	0.912
18.8811	0.91
18.9513	0.908
19.0215	0.906
19.0918	0.906
19.162	0.908
19.2322	0.906
19.3024	0.905
19.3727	0.903
19.4429	0.901
19.5131	0.899
19.5833	0.898
19.6536	0.896
19.7238	0.894
19.794	0.892
19.8643	0.887
19.9345	0.885
20.0047	0.881
20.0749	0.874
20.1452	0.871
20.2154	0.864
20.2856	0.853
20.3558	0.847
20.4261	0.833
20.4963	0.821
20.5665	0.801
20.6367	0.776
20.707	0.749
20.7772	0.699
20.8474	0.651
20.9177	0.577
20.9879	0.488
21.0581	0.4
21.1283	0.352
21.1986	0.338
21.2688	0.375
21.339	0.44
21.4092	0.502
21.4795	0.558
21.5497	0.602
21.6199	0.635
21.6902	0.66
21.7604	0.681
21.8306	0.701
21.9008	0.713
21.9711	0.729
22.0413	0.742
22.1115	0.753
22.1817	0.763
22.252	0.781
22.3222	0.788
22.3924	0.796
22.4627	0.801
22.5329	0.805
22.6031	0.801
22.6733	0.797
22.7436	0.787
22.8138	0.776
22.884	0.765
22.9542	0.76
23.0245	0.765
23.0947	0.776
23.1649	0.801
23.2351	0.817
23.3054	0.83
23.3756	0.844
23.4458	0.851
23.5161	0.858
23.5863	0.864
23.6565	0.869
23.7267	0.872
23.797	0.878
23.8672	0.883
23.9374	0.885
24.0076	0.889
24.0779	0.889
24.1481	0.885
24.2183	0.88
24.2886	0.874
24.3588	0.865
24.429	0.851
24.4992	0.838
24.5695	0.826
24.6397	0.803
24.7099	0.787
24.7801	0.774
24.8504	0.753
24.9206	0.751
24.9908	0.751
25.061	0.753
25.1313	0.758
25.2015	0.765
25.2717	0.785
25.342	0.801
25.4122	0.817
25.4824	0.828
25.5526	0.838
25.6229	0.851
25.6931	0.86
25.7633	0.872
25.8335	0.88
25.9038	0.883
25.974	0.892
26.0442	0.896
26.1145	0.898
26.1847	0.899
26.2549	0.901
26.3251	0.901
26.3954	0.901
26.4656	0.901
26.5358	0.899
26.606	0.899
26.6763	0.896
26.7465	0.892
26.8167	0.89
26.887	0.889
26.9572	0.889
27.0274	0.89
27.0976	0.889
27.1679	0.892
27.2381	0.896
27.3083	0.898
27.3785	0.899
27.4488	0.905
27.519	0.917
27.5892	0.923
27.6594	0.928
27.7297	0.933
27.7999	0.946
27.8701	0.949
27.9404	0.955
28.0106	0.967
28.0808	0.973
28.151	0.976
28.2213	0.98
28.2915	0.985
28.3617	0.985
28.4319	0.985
28.5022	0.985
28.5724	0.983
28.6426	0.982
28.7129	0.978
28.7831	0.973
28.8533	0.971
28.9235	0.971
28.9938	0.967
29.064	0.955
29.1342	0.949
29.2044	0.928
29.2747	0.899
29.3449	0.889
29.4151	0.86
29.4853	0.837
29.5556	0.805
29.6258	0.776
29.696	0.74
29.7663	0.69
29.8365	0.652
29.9067	0.617
29.9769	0.59
30.0472	0.577
30.1174	0.574
30.1876	0.586
30.2578	0.606
30.3281	0.64
30.3983	0.676
30.4685	0.71
30.5388	0.747
30.609	0.774
30.6792	0.801
30.7494	0.819
30.8197	0.847
30.8899	0.862
30.9601	0.871
31.0303	0.889
31.1006	0.896
31.1708	0.898
31.241	0.901
31.3113	0.905
31.3815	0.91
31.4517	0.914
31.5219	0.915
31.5922	0.914
31.6624	0.912
31.7326	0.908
31.8028	0.903
31.8731	0.896
31.9433	0.889
32.0135	0.883
32.0837	0.876
32.154	0.871
32.2242	0.855
32.2944	0.84
32.3647	0.835
32.4349	0.824
32.5051	0.815
32.5753	0.805
32.6456	0.792
32.7158	0.779
32.786	0.772
32.8562	0.767
32.9265	0.76
32.9967	0.747
33.0669	0.729
33.1372	0.704
33.2074	0.69
33.2776	0.681
33.3478	0.683
33.4181	0.686
33.4883	0.69
33.5585	0.701
33.6287	0.71
33.699	0.72
33.7692	0.733
33.8394	0.751
33.9097	0.767
33.9799	0.781
34.0501	0.79
34.1203	0.799
34.1906	0.803
34.2608	0.806
34.331	0.815
34.4012	0.822
34.4715	0.821
34.5417	0.821
34.6119	0.822
34.6821	0.824
34.7524	0.819
34.8226	0.817
34.8928	0.813
34.9631	0.817
35.0333	0.817
35.1035	0.817
35.1737	0.815
35.244	0.813
35.3142	0.813
35.3844	0.812
35.4546	0.812
35.5249	0.808
35.5951	0.803
35.6653	0.803
35.7356	0.801
35.8058	0.796
35.876	0.792
35.9462	0.79
36.0165	0.785
36.0867	0.779
36.1569	0.774
36.2271	0.769
36.2974	0.767
36.3676	0.762
36.4378	0.754
36.508	0.753
36.5783	0.751
36.6485	0.749
36.7187	0.747
36.789	0.744
36.8592	0.74
36.9294	0.737
36.9996	0.733
37.0699	0.728
37.1401	0.72
37.2103	0.717
37.2805	0.717
37.3508	0.715
37.421	0.713
37.4912	0.71
37.5615	0.704
37.6317	0.699
37.7019	0.685
37.7721	0.679
37.8424	0.676
37.9126	0.67
37.9828	0.672
38.053	0.762
