Infrared Spectrum: 1-Chlorobutane
Formula: C4 H9 Cl
CAS: 109-69-3
State: SOLUTION (10% CCl4 FOR 3800-1330, 10% CS2 FOR 1330-450)
Class: COBLENTZ III
Instrument: DOW KBr FOREPRISM-GRATING
Instrument parameters: BLAZED AT 3.5, 12.0, 20.0 AND CHANGED AT 5.0, 7.5, 14.9 MICRON
Sampling: TRANSMISSION
Path length: 0.0110 CM, 0.0107 CM
Resolution: 2
Origin: DOW CHEMICAL COMPANY
1/CM	TRANSMITTANCE
450	0.833
459	0.845
468	0.8431
477	0.8757
486	0.9058
495	0.918
504	0.9254
513	0.9279
522	0.9315
531	0.9371
540	0.9419
549	0.9482
558	0.9588
567	0.9612
576	0.9547
585	0.9467
594	0.9352
603	0.9196
612	0.9048
621	0.9024
630	0.8712
639	0.8207
648	0.5338
657	0.2577
666	0.8008
675	0.846
684	0.8616
693	0.8629
702	0.8395
711	0.7358
720	0.5769
729	0.4217
738	0.5194
747	0.3425
756	0.5497
765	0.7722
774	0.8239
783	0.756
792	0.8415
801	0.8371
810	0.8739
819	0.887
828	0.8877
837	0.885
846	0.8799
855	0.8476
864	0.7889
873	0.6234
882	0.7721
891	0.8649
900	0.8756
909	0.883
918	0.8563
927	0.7735
936	0.7964
945	0.8576
954	0.862
963	0.8602
972	0.8157
981	0.8588
990	0.8252
999	0.7426
1008	0.8352
1017	0.8221
1026	0.8425
1035	0.8432
1044	0.8045
1053	0.7636
1062	0.7988
1071	0.8225
1080	0.833
1089	0.8665
1098	0.8707
1107	0.8422
1116	0.909
1125	0.9314
1134	0.9248
1143	0.914
1152	0.9164
1161	0.9156
1170	0.9024
1179	0.878
1188	0.8741
1197	0.8611
1206	0.8791
1215	0.8795
1224	0.8576
1233	0.7839
1242	0.616
1251	0.8237
1260	0.8247
1269	0.7884
1278	0.5472
1287	0.3477
1296	0.4947
1305	0.5512
1314	0.4828
1323	0.6746
1332	0.7749
1341	0.7443
1350	0.7669
1359	0.7686
1368	0.8111
1377	0.6921
1386	0.67
1395	0.7974
1404	0.8152
1413	0.8061
1422	0.7808
1431	0.6253
1440	0.5576
1449	0.422
1458	0.2889
1467	0.2524
1476	0.5811
1485	0.7401
1494	0.7774
1503	0.7886
1512	0.7945
1521	0.796
1530	0.7938
1539	0.7767
1548	0.7399
1557	0.7182
1566	0.7637
1575	0.7867
1584	0.7933
1593	0.7745
1602	0.8228
1611	0.8426
1620	0.8582
1629	0.8712
1638	0.894
1647	0.9004
1656	0.8895
1665	0.8799
1674	0.8767
1683	0.8753
1692	0.8752
1701	0.8757
1710	0.8767
1719	0.8785
1728	0.8775
1737	0.8731
1746	0.8755
1755	0.879
1764	0.8804
1773	0.8816
1782	0.8821
1791	0.8805
1800	0.8787
1809	0.8794
1818	0.8787
1827	0.8771
1836	0.8776
1845	0.8778
1854	0.8775
1863	0.8781
1872	0.8797
1881	0.8804
1890	0.881
1899	0.8837
1908	0.8838
1917	0.885
1926	0.8858
1935	0.8866
1944	0.8866
1953	0.8882
1962	0.9092
1971	0.8826
1980	0.8815
1989	0.8838
1998	0.8958
2007	0.8958
2016	0.8962
2025	0.8956
2034	0.8977
2043	0.8976
2052	0.8953
2061	0.8928
2070	0.8962
2079	0.9002
2088	0.8993
2097	0.8963
2106	0.8984
2115	0.8995
2124	0.9011
2133	0.9023
2142	0.9035
2151	0.9032
2160	0.9024
2169	0.9027
2178	0.9017
2187	0.8996
2196	0.8998
2205	0.8987
2214	0.8977
2223	0.8982
2232	0.8973
2241	0.8969
2250	0.8958
2259	0.8965
2268	0.8965
2277	0.8965
2286	0.8961
2295	0.8951
2304	0.8926
2313	0.8912
2322	0.8905
2331	0.8861
2340	0.8856
2349	0.8839
2358	0.8834
2367	0.8833
2376	0.8877
2385	0.8888
2394	0.893
2403	0.8967
2412	0.8974
2421	0.8984
2430	0.8992
2439	0.8997
2448	0.9001
2457	0.8999
2466	0.9009
2475	0.9009
2484	0.8997
2493	0.8991
2502	0.8978
2511	0.8973
2520	0.8974
2529	0.8976
2538	0.8974
2547	0.8966
2556	0.8954
2565	0.8939
2574	0.8929
2583	0.8932
2592	0.8937
2601	0.8941
2610	0.8943
2619	0.8934
2628	0.8898
2637	0.884
2646	0.8792
2655	0.8799
2664	0.8821
2673	0.8848
2682	0.8792
2691	0.88
2700	0.886
2709	0.8899
2718	0.8804
2727	0.8655
2736	0.8523
2745	0.858
2754	0.8693
2763	0.8772
2772	0.8783
2781	0.8743
2790	0.8652
2799	0.8529
2808	0.8331
2817	0.8064
2826	0.7707
2835	0.6875
2844	0.553
2853	0.5795
2862	0.3495
2871	0.1184
2880	0.1957
2889	0.4063
2898	0.3553
2907	0.3231
2916	0.2798
2925	0.1393
2934	0.0535
2943	0.105
2952	0.0572
2961	0.0171
2970	0.0224
2979	0.1642
2988	0.3212
2997	0.4114
3006	0.6543
3015	0.7438
3024	0.7999
3033	0.8343
3042	0.8579
3051	0.8669
3060	0.8784
3069	0.8885
3078	0.8933
3087	0.8978
3096	0.9034
3105	0.9028
3114	0.9044
3123	0.9063
3132	0.9078
3141	0.9083
3150	0.9099
3159	0.9103
3168	0.9091
3177	0.9091
3186	0.9098
3195	0.9114
3204	0.9112
3213	0.9157
3222	0.9196
3231	0.924
3240	0.9297
3249	0.9349
3258	0.9378
3267	0.9398
3276	0.9401
3285	0.9406
3294	0.9421
3303	0.9428
3312	0.9441
3321	0.9427
3330	0.9429
3339	0.9429
3348	0.9431
3357	0.9441
3366	0.9453
3375	0.9475
3384	0.9536
3393	0.9585
3402	0.9596
3411	0.9589
3420	0.9581
3429	0.9561
3438	0.9542
3447	0.9531
3456	0.9522
3465	0.9511
3474	0.9501
3483	0.9487
3492	0.9474
3501	0.9461
3510	0.945
3519	0.9439
3528	0.9429
3537	0.9433
3546	0.9439
3555	0.9437
3564	0.9424
3573	0.9433
3582	0.9428
3591	0.9406
3600	0.9376
3609	0.9338
3618	0.9258
3627	0.916
3636	0.9061
3645	0.9097
3654	0.9275
3663	0.9372
3672	0.9424
3681	0.9453
3690	0.9499
3699	0.9515
3708	0.944
3717	0.9413
3726	0.9415
3735	0.942
3744	0.9407
3753	0.9413
3762	0.9416
3771	0.9421
3780	0.9425
3789	0.9438
3798	0.9435
