Infrared Spectrum: Ethylamine
Formula: C 2 H 7 N
CAS: 75-04-7
State: gas
Origin: Sadtler Research Labs Under US-EPA Contract
1/CM	ABSORBANCE
450	0.0020595
462	0.0166231
474	0.00500164
486	0.00132396
498	0.000441321
510	0.00323635
522	0.00779667
534	0.00956196
546	0.0170644
558	0.0255966
570	0.030304
582	0.0383949
594	0.0444263
606	0.0501635
618	0.0595783
630	0.0684048
642	0.0801733
654	0.0910592
666	0.0979733
678	0.124894
690	0.152991
702	0.197565
714	0.271854
726	0.394835
738	0.560625
750	0.794672
762	1.04108
774	1.25159
786	1.11434
798	0.984881
810	0.703024
822	0.375711
834	0.252141
846	0.169909
858	0.127689
870	0.110183
882	0.0922361
894	0.0800262
906	0.0644329
918	0.0366296
930	0.0330991
942	0.0169173
954	0.0150049
966	0.0276561
978	0.0154462
990	0.0189768
1002	0.0294214
1014	0.0523701
1026	0.0817915
1038	0.122834
1050	0.179029
1062	0.251553
1074	0.31834
1086	0.31172
1098	0.320987
1110	0.227869
1122	0.115185
1134	0.0766427
1146	0.0442792
1158	0.0278032
1170	0.0175057
1182	0.012357
1194	0.0114743
1206	0.0113272
1218	0.0104446
1230	0.00647271
1242	0.00735535
1254	0.012357
1266	0.0230958
1278	0.0376594
1290	0.0428081
1302	0.04678
1314	0.0566362
1326	0.0636973
1338	0.0741419
1350	0.116509
1362	0.158876
1374	0.220955
1386	0.230222
1398	0.286564
1410	0.245227
1422	0.165642
1434	0.103563
1446	0.11136
1458	0.154609
1470	0.10577
1482	0.094884
1494	0.082527
1506	0.0609023
1518	0.0350115
1530	0.024714
1542	0.0185355
1554	0.0241255
1566	0.0413371
1578	0.0725238
1590	0.121805
1602	0.190062
1614	0.222426
1626	0.236254
1638	0.214041
1650	0.167114
1662	0.103563
1674	0.0578131
1686	0.031628
1698	0.0144165
1710	0.00764956
1722	0.00588428
1734	0.00308925
1746	0.000588428
1758	0.00338346
1770	0.00338346
1782	0.00367768
1794	0.00514874
1806	0.00691403
1818	0.00912063
1830	0.00897353
1842	0.0102975
1854	0.012357
1866	0.0104446
1878	0.00897353
1890	0.00676692
1902	0.00544296
1914	0.004119
1926	0.00176528
1938	0.000882642
1950	0.000735535
1962	0.00117686
1974	0.00147107
1986	0.0022066
1998	0.0022066
2010	0.00176528
2022	0.00191239
2034	0.00250082
2046	0.00191239
2058	0.00250082
2070	0.00250082
2082	0.00264793
2094	0.00294214
2106	0.00308925
2118	0.00353057
2130	0.00367768
2142	0.00456032
2154	0.00500164
2166	0.00470742
2178	0.00514874
2190	0.00397189
2202	0.00382478
2214	0.00441321
2226	0.00514874
2238	0.00603139
2250	0.00647271
2262	0.00706114
2274	0.00735535
2286	0.00559007
2298	0.00264793
2310	0.000441321
2322	0.000441321
2334	0.000588428
2346	0.00117686
2358	0.000588428
2370	0.00176528
2382	0.00397189
2394	0.00617849
2406	0.00661982
2418	0.00647271
2430	0.00661982
2442	0.00676692
2454	0.00735535
2466	0.00706114
2478	0.00750246
2490	0.00706114
2502	0.00647271
2514	0.00691403
2526	0.00823799
2538	0.00926774
2550	0.011033
2562	0.0125041
2574	0.0141223
2586	0.0160347
2598	0.0169173
2610	0.0173586
2622	0.0191239
2634	0.0219189
2646	0.0263322
2658	0.0319222
2670	0.0376594
2682	0.0435437
2694	0.050899
2706	0.0576659
2718	0.0636973
2730	0.0720824
2742	0.0770841
2754	0.0834097
2766	0.0904708
2778	0.0957667
2790	0.119745
2802	0.160641
2814	0.225956
2826	0.313779
2838	0.423668
2850	0.534734
2862	0.689343
2874	0.77393
2886	0.810854
2898	0.812913
2910	0.853809
2922	0.934129
2934	0.961786
2946	1.12978
2958	1.30352
2970	1.47107
2982	1.18568
2994	0.925303
3006	0.596813
3018	0.332315
3030	0.166525
3042	0.0764956
3054	0.0376594
3066	0.0244198
3078	0.0203008
3090	0.0179471
3102	0.016476
3114	0.0158876
3126	0.015152
3138	0.0152991
3150	0.0150049
3162	0.0158876
3174	0.0173586
3186	0.0186826
3198	0.0200066
3210	0.0188297
3222	0.0169173
3234	0.0145636
3246	0.0104446
3258	0.00661982
3270	0.0042661
3282	0.00367768
3294	0.00603139
3306	0.00823799
3318	0.0141223
3330	0.0200066
3342	0.0245669
3354	0.0266264
3366	0.0292743
3378	0.02339
3390	0.0185355
3402	0.0138281
3414	0.0105917
3426	0.00750246
3438	0.00514874
3450	0.00367768
3462	0.00264793
3474	0.00353057
3486	0.00161818
3498	0.0022066
3510	0.0022066
3522	0.00161818
3534	0.0022066
3546	0.00147107
3558	0.00264793
3570	0.000588428
3582	0.000441321
3594	0.00176528
3606	0.000882642
3618	0.000441321
3630	0.00161818
3642	0.0022066
3654	0.00117686
3666	0.00117686
3678	0.00323635
3690	0.00294214
3702	0.00147107
3714	0.0022066
3726	0.00250082
3738	0.00456032
3750	0.00397189
3762	0.00367768
3774	0.00338346
3786	0.0022066
3798	0.00367768
3810	0.00279503
3822	0.0022066
3834	0.00308925
3846	0.00132396
3858	0.00529585
3870	0.00250082
3882	0.00147107
3894	0.00308925
3906	0.00250082
3918	0.00279503
3930	0.00441321
3942	0.00603139
3954	0.00779667
3966	0.00500164
