Infrared Spectrum: 1-Hexene
Formula: C 6 H 12
CAS: 592-41-6
State: gas
Instrument: HP-GC/MS/IRD
Origin: NIST Mass Spectrometry Data Center
1/CM	ABSORBANCE
550	0.0004875
562	0.0001404
574	0.000117
586	4.29e-05
598	0.0003783
610	0.0007566
622	0.0011115
634	0.0011232
646	0.0008112
658	0.000585
670	0.0001833
682	8.19e-05
694	0.000195
706	0.000156
718	0.0001872
730	0.0004641
742	0.0006279
754	0.0005538
766	0.0003588
778	0.0002769
790	0.000273
802	0.0002613
814	0.0003198
826	0.000429
838	0.0005109
850	0.000702
862	0.0010491
874	0.0016809
886	0.0033072
898	0.0064662
910	0.0096681
922	0.0091377
934	0.0055146
946	0.0034242
958	0.002613
970	0.0027651
982	0.003861
994	0.0043641
1006	0.0034086
1018	0.0021489
1030	0.0015171
1042	0.0010647
1054	0.000702
1066	0.000468
1078	0.0003588
1090	0.0003471
1102	0.0004017
1114	0.0004368
1126	0.0003705
1138	0.0003939
1150	0.0002769
1162	0.0002028
1174	0.0001716
1186	8.58e-05
1198	0.0001365
1210	0.0002457
1222	0.0002691
1234	0.0002769
1246	0.0003939
1258	0.0003783
1270	0.0003744
1282	0.0005343
1294	0.0007176
1306	0.0007566
1318	0.0007761
1330	0.0009282
1342	0.0010296
1354	0.0010764
1366	0.0011232
1378	0.0016068
1390	0.0018252
1402	0.0016146
1414	0.0017862
1426	0.0024375
1438	0.0034476
1450	0.0044733
1462	0.0044889
1474	0.0033345
1486	0.0020085
1498	0.0010998
1510	0.0005538
1522	0.0004212
1534	0.00039
1546	0.0003588
1558	0.0003081
1570	0.0002535
1582	0.0002808
1594	0.0004563
1606	0.0008151
1618	0.0017277
1630	0.0036192
1642	0.00429
1654	0.0028002
1666	0.0008814
1678	0.0004173
1690	0.0002418
1702	0.0001404
1714	0.0001014
1726	4.29e-05
1738	7.8e-06
1750	3.9e-05
1762	5.85e-05
1774	7.02e-05
1786	8.58e-05
1798	0.0002067
1810	0.0005499
1822	0.0010023
1834	0.0009906
1846	0.0005187
1858	0.0002301
1870	0.0001053
1882	4.29e-05
1894	5.85e-05
1906	5.85e-05
1918	1.17e-05
1930	1.95e-05
1942	1.95e-05
1954	8.58e-05
1966	0.0001053
1978	0.0001248
1990	0.0001014
2002	3.9e-05
2014	1.56e-05
2026	4.68e-05
2038	7.02e-05
2050	6.63e-05
2062	4.29e-05
2074	5.07e-05
2086	4.68e-05
2098	2.73e-05
2110	1.56e-05
2122	0
2134	4.29e-05
2146	5.46e-05
2158	4.29e-05
2170	6.63e-05
2182	6.24e-05
2194	8.97e-05
2206	5.46e-05
2218	5.07e-05
2230	5.46e-05
2242	7.8e-05
2254	6.63e-05
2266	4.68e-05
2278	4.29e-05
2290	3.9e-06
2302	5.07e-05
2314	3.51e-05
2326	4.68e-05
2338	5.46e-05
2350	6.24e-05
2362	2.73e-05
2374	6.63e-05
2386	6.63e-05
2398	5.85e-05
2410	3.12e-05
2422	6.24e-05
2434	5.07e-05
2446	6.63e-05
2458	4.68e-05
2470	5.85e-05
2482	3.51e-05
2494	3.51e-05
2506	4.68e-05
2518	7.8e-05
2530	5.85e-05
2542	8.58e-05
2554	0.0001053
2566	0.0001248
2578	0.0001482
2590	0.000156
2602	0.0002028
2614	0.0001911
2626	0.0002028
2638	0.0002847
2650	0.0002925
2662	0.0003471
2674	0.0003861
2686	0.0003939
2698	0.0004095
2710	0.0003978
2722	0.0004329
2734	0.0005382
2746	0.0006981
2758	0.0007332
2770	0.0007995
2782	0.0009321
2794	0.0011856
2806	0.0015951
2818	0.0023712
2830	0.0038805
2842	0.0066495
2854	0.0105963
2866	0.014352
2878	0.0172419
2890	0.0175773
2902	0.0193089
2914	0.0263094
2926	0.0353613
2938	0.039
2950	0.0359541
2962	0.0337818
2974	0.0290004
2986	0.0194025
2998	0.0119106
3010	0.0079638
3022	0.0053469
3034	0.0039117
3046	0.0036699
3058	0.0041925
3070	0.005733
3082	0.0075855
3094	0.0065208
3106	0.0031902
3118	0.0016419
3130	0.0010959
3142	0.0008307
3154	0.0006435
3166	0.0006123
3178	0.0004641
3190	0.0003939
3202	0.0003627
3214	0.0003198
3226	0.0002496
3238	0.0001911
3250	0.0002067
3262	0.0001443
3274	0.0001443
3286	0.0001209
3298	0.0001131
3310	5.85e-05
3322	6.24e-05
3334	0.0001014
3346	6.63e-05
3358	9.75e-05
3370	7.02e-05
3382	5.85e-05
3394	0.0001092
3406	2.34e-05
3418	0.0001014
3430	7.02e-05
3442	9.36e-05
3454	0.0001248
3466	8.97e-05
3478	3.51e-05
3490	4.29e-05
3502	5.07e-05
3514	5.07e-05
3526	8.19e-05
3538	9.75e-05
3550	0
3562	0.0001053
3574	0.0001053
3586	7.8e-05
3598	6.63e-05
3610	6.63e-05
3622	6.63e-05
3634	0.0001053
3646	0.0001365
3658	0.0002028
3670	0.0001092
3682	0.0001092
3694	0.0001443
3706	0.0001209
3718	0.0001209
3730	9.36e-05
3742	9.36e-05
3754	0.0001014
3766	0.0001131
3778	0.0001248
3790	0.0001131
3802	0.0001287
3814	0.0001092
3826	0.0001131
3838	0.000234
