Infrared Spectrum: 1-Hexene
Formula: C6 H12
CAS: 592-41-6
State: GAS (100 mmHg, N2 ADDED, TOTAL PRESSURE 600 mmHg)
Class: COBLENTZ
Instrument: DOW KBr FOREPRISM-GRATING
Instrument parameters: GRATING CHANGED AT 5.0, 7.5, 15.0 MICRON
Sampling: TRANSMISSION
Path length: 5 CM
Resolution: 2
Origin: DOW CHEMICAL COMPANY
1/CM	TRANSMITTANCE
463	0.811
472	0.8181
481	0.8224
490	0.8248
499	0.824
508	0.8211
517	0.8148
526	0.8068
535	0.7946
544	0.7841
553	0.7706
562	0.781
571	0.7985
580	0.8074
589	0.8086
598	0.8015
607	0.7691
616	0.7088
625	0.6557
634	0.6282
643	0.6886
652	0.721
661	0.7353
670	0.7243
679	0.7119
688	0.6885
697	0.7139
706	0.6844
715	0.7131
724	0.7373
733	0.7315
742	0.7331
751	0.7673
760	0.7969
769	0.8253
778	0.8248
787	0.8219
796	0.823
805	0.8208
814	0.8114
823	0.8031
832	0.8039
841	0.8104
850	0.8104
859	0.8018
868	0.7788
877	0.7344
886	0.6495
895	0.4426
904	0.2305
913	0.1102
922	0.2131
931	0.417
940	0.5964
949	0.6507
958	0.6155
967	0.5565
976	0.5139
985	0.4009
994	0.3697
1003	0.4761
1012	0.6224
1021	0.7007
1030	0.7072
1039	0.7239
1048	0.7447
1057	0.774
1066	0.7874
1075	0.7502
1084	0.7383
1093	0.7676
1102	0.7778
1111	0.7892
1120	0.8014
1129	0.8144
1138	0.8153
1147	0.8143
1156	0.8218
1165	0.8156
1174	0.809
1183	0.8168
1192	0.8454
1201	0.8472
1210	0.8349
1219	0.8189
1228	0.8207
1237	0.8191
1246	0.8008
1255	0.7952
1264	0.809
1273	0.8027
1282	0.7938
1291	0.7674
1300	0.7493
1309	0.7565
1318	0.7738
1327	0.7691
1336	0.744
1345	0.7022
1354	0.6548
1363	0.5959
1372	0.5255
1381	0.4906
1390	0.5204
1399	0.649
1408	0.6787
1417	0.6592
1426	0.6254
1435	0.5308
1444	0.4427
1453	0.3369
1462	0.3152
1471	0.3628
1480	0.521
1489	0.6552
1498	0.7591
1507	0.8063
1516	0.8224
1525	0.8206
1534	0.8158
1543	0.8086
1552	0.8177
1561	0.8246
1570	0.8338
1579	0.8297
1588	0.8168
1597	0.8023
1606	0.7812
1615	0.7602
1624	0.7188
1633	0.6111
1642	0.3802
1651	0.3622
1660	0.6537
1669	0.78
1678	0.8102
1687	0.8236
1696	0.8275
1705	0.8269
1714	0.8223
1723	0.8135
1732	0.8074
1741	0.7871
1750	0.7839
1759	0.8156
1768	0.8282
1777	0.8416
1786	0.8333
1795	0.8328
1804	0.8281
1813	0.7867
1822	0.7181
1831	0.7121
1840	0.7783
1849	0.8244
1858	0.8404
1867	0.8469
1876	0.8512
1885	0.8538
1894	0.8556
1903	0.8564
1912	0.8563
1921	0.8561
1930	0.8555
1939	0.854
1948	0.8523
1957	0.8509
1966	0.8484
1975	0.841
1984	0.8411
1993	0.8473
2002	0.853
2011	0.856
2020	0.8587
2029	0.8584
2038	0.8576
2047	0.8591
2056	0.8612
2065	0.862
2074	0.8629
2083	0.8637
2092	0.8645
2101	0.865
2110	0.8656
2119	0.8661
2128	0.8659
2137	0.8651
2146	0.8643
2155	0.8634
2164	0.8626
2173	0.8614
2182	0.8601
2191	0.8587
2200	0.8573
2209	0.8562
2218	0.8556
2227	0.8555
2236	0.8578
2245	0.8598
2254	0.8583
2263	0.8573
2272	0.8565
2281	0.856
2290	0.8557
2299	0.8556
2308	0.8556
2317	0.8559
2326	0.8568
2335	0.8576
2344	0.8581
2353	0.8581
2362	0.858
2371	0.8582
2380	0.859
2389	0.8598
2398	0.8608
2407	0.8618
2416	0.8628
2425	0.8638
2434	0.8648
2443	0.8658
2452	0.8669
2461	0.8681
2470	0.8694
2479	0.8707
2488	0.8721
2497	0.8733
2506	0.8719
2515	0.8695
2524	0.8671
2533	0.8646
2542	0.8621
2551	0.8594
2560	0.8567
2569	0.8538
2578	0.8511
2587	0.8485
2596	0.8478
2605	0.8475
2614	0.8469
2623	0.8454
2632	0.8434
2641	0.839
2650	0.834
2659	0.8286
2668	0.8232
2677	0.8195
2686	0.8196
2695	0.8224
2704	0.8284
2713	0.8273
2722	0.8215
2731	0.8077
2740	0.7822
2749	0.7816
2758	0.8037
2767	0.807
2776	0.8016
2785	0.7936
2794	0.7866
2803	0.7755
2812	0.7519
2821	0.7214
2830	0.5715
2839	0.4433
2848	0.2766
2857	0.092
2866	0.051
2875	0.041
2884	0.0556
2893	0.075
2902	0.0747
2911	0.0324
2920	0.0041
2929	0
2938	0
2947	0
2956	0.0001
2965	0.0001
2974	0.0034
2983	0.0504
2992	0.1093
3001	0.2757
3010	0.3624
3019	0.4491
3028	0.5358
3037	0.5725
3046	0.5703
3055	0.4843
3064	0.3984
3073	0.3123
3082	0.2342
3091	0.2592
3100	0.4575
3109	0.7527
3118	0.789
3127	0.8103
3136	0.8179
3145	0.8206
3154	0.8228
3163	0.8246
3172	0.8267
3181	0.8289
3190	0.8313
3199	0.8349
3208	0.8416
3217	0.849
3226	0.8562
3235	0.8634
3244	0.8659
3253	0.866
3262	0.8662
3271	0.8662
3280	0.8662
3289	0.8677
3298	0.87
3307	0.8721
3316	0.8734
3325	0.8741
3334	0.8749
3343	0.8755
3352	0.8755
3361	0.8755
3370	0.8761
3379	0.8765
3388	0.8766
3397	0.8767
3406	0.8768
3415	0.876
3424	0.875
3433	0.8751
3442	0.8757
3451	0.8782
3460	0.8811
3469	0.8821
3478	0.8823
3487	0.8826
3496	0.883
3505	0.8828
3514	0.8827
3523	0.8825
3532	0.8824
3541	0.8822
3550	0.882
3559	0.8812
3568	0.8801
3577	0.879
3586	0.8777
3595	0.8763
3604	0.875
3613	0.8737
3622	0.8728
3631	0.8726
3640	0.8724
3649	0.872
3658	0.8716
3667	0.8711
3676	0.8712
3685	0.8713
3694	0.8718
3703	0.8725
3712	0.8732
3721	0.8737
3730	0.8743
3739	0.8745
3748	0.8759
3757	0.8767
3766	0.8757
