Infrared Spectrum: 1-HEXENE
Formula: C6 H12
CAS: 592-41-6
State: SOLUTION (10% IN CCl4 FOR 3800-1330 AND 10% IN CS2 FOR 1330-400 CM^-^1) VS. SOLVENT
Class: COBLENTZ III
Instrument: DOW KBr FOREPRISM-GRATING
Instrument parameters: BLAZED AT 3.5, 12.0, 20.0 MICRON, CHANGED AT 5.0, 7.5, 14.9 MICRON
Sampling: TRANSMISSION
Path length: 0.010, 0.011 CM
Resolution: 4
Origin: DOW CHEMICAL COMPANY
1/CM	TRANSMITTANCE
380.849	1.013
389.554	1.012
398.259	1.013
406.964	1.021
415.669	1.027
424.375	1.03
433.08	1.03
441.785	1.028
450.49	1.03
459.195	1.031
467.9	1.038
476.605	1.047
485.31	1.051
494.016	1.053
502.721	1.051
511.426	1.049
520.131	1.045
528.836	1.038
537.541	1.019
546.246	0.976
554.951	0.975
563.657	1.027
572.362	1.045
581.067	1.045
589.772	1.039
598.477	1.028
607.182	1.001
615.887	0.922
624.592	0.804
633.298	0.804
642.003	0.873
650.708	0.929
659.413	0.984
668.118	1.038
676.823	1.062
685.528	1.07
694.233	1.072
702.938	1.073
711.644	1.069
720.349	1.038
729.054	0.937
737.759	0.922
746.464	0.967
755.169	1.096
763.874	1.109
772.579	1.098
781.285	1.064
789.99	1.064
798.695	1.087
807.4	1.073
816.105	1.064
824.81	1.076
833.515	1.064
842.22	1.025
850.926	0.933
859.631	0.908
868.336	0.904
877.041	0.89
885.746	0.818
894.451	0.624
903.156	0.1
911.861	0.135
920.566	0.577
929.272	0.755
937.977	0.911
946.682	0.978
955.387	0.986
964.092	0.964
972.797	0.909
981.502	0.702
990.207	0.199
998.913	0.661
1007.62	0.903
1016.32	0.942
1025.03	0.933
1033.73	0.942
1042.44	0.993
1051.14	1.01
1059.85	1.016
1068.55	1.017
1077.26	1.027
1085.96	1.017
1094.67	0.982
1103.37	0.964
1112.08	1.036
1120.78	1.043
1129.49	1.019
1138.19	1.017
1146.9	1.035
1155.6	1.047
1164.31	1.051
1173.02	1.058
1181.72	1.062
1190.43	1.055
1199.13	1.043
1207.84	1.023
1216.54	1.013
1225.25	1.017
1233.95	1.006
1242.66	0.983
1251.36	1.005
1260.07	1.005
1268.77	0.995
1277.48	0.968
1286.18	0.927
1294.89	0.89
1303.59	0.918
1312.3	0.937
1321	0.931
1329.71	0.941
1338.41	0.896
1347.12	0.922
1355.82	0.912
1364.53	0.889
1373.23	0.796
1381.94	0.646
1390.64	0.881
1399.35	0.892
1408.05	0.867
1416.76	0.705
1425.46	0.785
1434.17	0.618
1442.87	0.56
1451.58	0.519
1460.28	0.38
1468.99	0.33
1477.69	0.813
1486.4	0.855
1495.1	0.851
1503.81	0.824
1512.51	0.785
1521.22	0.735
1529.92	0.684
1538.63	0.603
1547.34	0.529
1556.04	0.562
1564.75	0.648
1573.45	0.698
1582.16	0.718
1590.86	0.778
1599.57	0.849
1608.27	0.89
1616.98	0.889
1625.68	0.877
1634.39	0.682
1643.09	0.272
1651.8	0.874
1660.5	0.926
1669.21	0.952
1677.91	0.963
1686.62	0.971
1695.32	0.969
1704.03	0.976
1712.73	0.978
1721.44	0.978
1730.14	0.978
1738.85	0.978
1747.55	0.982
1756.26	0.982
1764.96	0.982
1773.67	0.98
1782.37	0.978
1791.08	0.974
1799.78	0.96
1808.49	0.935
1817.19	0.877
1825.9	0.871
1834.6	0.929
1843.31	0.954
1852.01	0.967
1860.72	0.972
1869.42	0.974
1878.13	0.978
1886.83	0.978
1895.54	0.974
1904.25	0.975
1912.95	0.978
1921.66	0.979
1930.36	0.978
1939.07	0.978
1947.77	0.976
1956.48	0.978
1965.18	0.968
1973.89	0.956
1982.59	0.95
1991.3	0.956
2000	0.96
2008.71	0.964
2017.41	0.965
2026.12	0.965
2034.82	0.963
2043.53	0.963
2052.23	0.964
2060.94	0.963
2069.64	0.961
2078.35	0.965
2087.05	0.967
2095.76	0.968
2104.46	0.9681
2113.17	0.971
2121.87	0.971
2130.58	0.972
2139.28	0.971
2147.99	0.971
2156.69	0.971
2165.4	0.968
2174.1	0.968
2182.81	0.968
2191.51	0.968
2200.22	0.967
2208.92	0.9654
2217.63	0.965
2226.33	0.965
2235.04	0.965
2243.74	0.9643
2252.45	0.963
2261.16	0.96
2269.86	0.9563
2278.57	0.954
2287.27	0.9497
2295.98	0.953
2304.68	0.953
2313.39	0.9537
2322.09	0.9514
2330.8	0.9586
2339.5	0.9579
2348.21	0.9611
2356.91	0.9636
2365.62	0.965
2374.32	0.964
2383.03	0.964
2391.73	0.9646
2400.44	0.967
2409.14	0.967
2417.85	0.967
2426.55	0.967
2435.26	0.967
2443.96	0.967
2452.67	0.967
2461.37	0.967
2470.08	0.967
2478.78	0.965
2487.49	0.965
2496.19	0.963
2504.9	0.9619
2513.6	0.9605
2522.31	0.9565
2531.01	0.956
2539.72	0.9536
2548.42	0.953
2557.13	0.9524
2565.83	0.949
2574.54	0.946
2583.24	0.9456
2591.95	0.945
2600.65	0.944
2609.36	0.9433
2618.07	0.939
2626.77	0.938
2635.48	0.933
2644.18	0.926
2652.89	0.926
2661.59	0.9227
2670.3	0.9157
2679	0.919
2687.71	0.9233
2696.41	0.9315
2705.12	0.9297
2713.82	0.923
2722.53	0.9173
2731.23	0.9024
2739.94	0.8977
2748.64	0.912
2757.35	0.9106
2766.05	0.905
2774.76	0.9026
2783.46	0.8936
2792.17	0.8805
2800.87	0.8681
2809.58	0.8459
2818.28	0.8046
2826.99	0.7287
2835.69	0.623
2844.4	0.4844
2853.1	0.3244
2861.81	0.1354
2870.51	0.1529
2879.22	0.113
2887.92	0.3013
2896.63	0.2841
2905.33	0.1548
2914.04	0.1046
2922.74	0.0317
2931.45	0.009
2940.15	0.0131
2948.86	0.0792
2957.56	0.0681
2966.27	0.015
2974.98	0.0446
2983.68	0.1547
2992.39	0.2692
3001.09	0.4517
3009.8	0.4796
3018.5	0.6194
3027.21	0.7614
3035.91	0.8085
3044.62	0.813
3053.32	0.8024
3062.03	0.765
3070.73	0.6304
3079.44	0.5633
3088.14	0.4184
3096.85	0.5658
3105.55	0.7983
3114.26	0.8793
3122.96	0.8993
3131.67	0.9106
3140.37	0.9176
3149.08	0.9198
3157.78	0.92
3166.49	0.922
3175.19	0.9268
3183.9	0.9308
3192.6	0.931
3201.31	0.9337
3210.01	0.934
3218.72	0.937
3227.42	0.938
3236.13	0.9404
3244.83	0.9447
3253.54	0.9443
3262.24	0.944
3270.95	0.942
3279.65	0.944
3288.36	0.945
3297.06	0.945
3305.77	0.945
3314.47	0.942
3323.18	0.942
3331.89	0.941
3340.59	0.941
3349.3	0.939
3358	0.939
3366.71	0.938
3375.41	0.938
3384.12	0.937
3392.82	0.937
3401.53	0.938
3410.23	0.938
3418.94	0.939
3427.64	0.938
3436.35	0.9385
3445.05	0.9415
3453.76	0.944
3462.46	0.944
3471.17	0.944
3479.87	0.946
3488.58	0.949
3497.28	0.952
3505.99	0.953
3514.69	0.9548
3523.4	0.9564
3532.1	0.957
3540.81	0.9578
3549.51	0.961
3558.22	0.9617
3566.92	0.965
3575.63	0.967
3584.33	0.963
3593.04	0.9637
3601.74	0.971
3610.45	0.971
3619.15	0.969
3627.86	0.969
3636.56	0.969
3645.27	0.971
3653.97	0.972
3662.68	0.974
3671.38	0.9735
3680.09	0.974
3688.79	0.971
3697.5	0.9678
3706.21	0.9672
3714.91	0.9742
3723.62	0.976
3732.32	0.978
3741.03	0.978
3749.73	0.978
3758.44	0.9777
3767.14	0.976
3775.85	0.976
3784.55	0.978
3793.26	0.978
