Infrared Spectrum: Ethene, 1,1-dichloro-
Formula: C 2 H 2 Cl 2
CAS: 75-35-4
State: gas
Origin: Sadtler Research Labs Under US-EPA Contract
1/CM	ABSORBANCE
450	0.101284
462	0.0561952
474	0.0489229
486	0.0194369
498	0.0122968
510	0.00912346
522	0.00872678
534	0.00965235
546	0.00965235
558	0.0152058
570	0.0359649
582	0.111597
594	0.224384
606	0.205608
618	0.150868
630	0.0429728
642	0.00978458
654	0.00304115
666	0.00290893
678	0.00304115
690	0.00290893
702	0.00357005
714	0.00396672
726	0.00542118
738	0.00806566
750	0.0449562
762	0.248184
774	0.716654
786	1.32224
798	1.00649
810	0.607569
822	0.0874001
834	0.108688
846	0.24435
858	0.365996
870	0.699862
882	0.405134
894	0.274761
906	0.0856812
918	0.0376838
930	0.0276348
942	0.015338
954	0.0125613
966	0.00846234
978	0.0066112
990	0.00515674
1002	0.00727232
1014	0.0113713
1026	0.0108424
1038	0.0107101
1050	0.0465428
1062	0.242367
1074	0.748388
1086	1.24595
1098	1.0131
1110	0.610214
1122	0.138571
1134	0.19741
1146	0.157743
1158	0.0747066
1170	0.014148
1182	0.00740454
1194	0.00555341
1206	0.00555341
1218	0.00290893
1230	0.00489229
1242	0.00542118
1254	0.00409894
1266	0.00370227
1278	0.00370227
1290	0.00674342
1302	0.0173213
1314	0.0208914
1326	0.0247259
1338	0.0140157
1350	0.0115035
1362	0.016528
1374	0.0302793
1386	0.0416506
1398	0.0375516
1410	0.0199658
1422	0.00171891
1434	0.00198336
1446	0.00290893
1458	0
1470	0.00251226
1482	0.00396672
1494	0.00238003
1506	0.00476006
1518	0.0162636
1530	0.0452206
1542	0.103135
1554	0.196088
1566	0.202964
1578	0.251226
1590	0.231921
1602	0.494253
1614	0.780915
1626	0.848349
1638	0.402887
1650	0.101151
1662	0.0158669
1674	0.00145446
1686	0.00423117
1698	0.00542118
1710	0.00595008
1722	0.0126935
1734	0.0235359
1746	0.0202303
1758	0.0240648
1770	0.0120324
1782	0.00436339
1794	0.00409894
1806	0.00489229
1818	0.00317338
1830	0.00264448
1842	0.0027767
1854	0.00370227
1866	0.00476006
1878	0.00449562
1890	0.00436339
1902	0.00370227
1914	0.00251226
1926	0.00304115
1938	0.00264448
1950	0.00171891
1962	0.00158669
1974	0.00224781
1986	0.00211558
1998	0.00198336
2010	0.00158669
2022	0.000793344
2034	0.00198336
2046	0.00185114
2058	0.00198336
2070	0.00238003
2082	0.00119002
2094	0.00105779
2106	0.000793344
2118	0.000793344
2130	0.000528896
2142	0.00066112
2154	0.000528896
2166	0.00105779
2178	0.00185114
2190	0.00158669
2202	0.00290893
2214	0.00317338
2226	0.00304115
2238	0.00211558
2250	0.00066112
2262	0.000264448
2274	0.000264448
2286	0.000264448
2298	0.000132224
2310	0.00066112
2322	0.000396672
2334	0.000396672
2346	0.000793344
2358	0.000396672
2370	0
2382	0.00105779
2394	0.00185114
2406	0.0033056
2418	0.00502451
2430	0.00449562
2442	0.00304115
2454	0.00145446
2466	0.00066112
2478	0.00066112
2490	0.000528896
2502	0.000396672
2514	0.00066112
2526	0.000396672
2538	0.000528896
2550	0.00066112
2562	0.000264448
2574	0.000264448
2586	0.000132224
2598	0.000264448
2610	0.000793344
2622	0.000925568
2634	0.00132224
2646	0.00119002
2658	0.00119002
2670	0.000925568
2682	0.00158669
2694	0.00158669
2706	0.000793344
2718	0.00105779
2730	0.000396672
2742	0.000528896
2754	0.000396672
2766	0.000396672
2778	0.000264448
2790	0.000396672
2802	0.000264448
2814	0.00066112
2826	0.000925568
2838	0.000925568
2850	0.00066112
2862	0.00105779
2874	0.000793344
2886	0.00119002
2898	0.00132224
2910	0.00145446
2922	0.00158669
2934	0.00198336
2946	0.00171891
2958	0.00211558
2970	0.00198336
2982	0.00238003
2994	0.00251226
3006	0.00317338
3018	0.00224781
3030	0.00251226
3042	0.00238003
3054	0.00317338
3066	0.00171891
3078	0.00145446
3090	0.00132224
3102	0.000793344
3114	0.000264448
3126	0
3138	0.000925568
3150	0.00185114
3162	0.00449562
3174	0.00780122
3186	0.00859456
3198	0.00819789
3210	0.00317338
3222	0.00185114
3234	0.0033056
3246	0.00317338
3258	0.00158669
3270	0.00119002
3282	0
3294	0.00132224
3306	0.00158669
3318	0.00158669
3330	0.00158669
3342	0.00158669
3354	0.00105779
3366	0.00105779
3378	0.00105779
3390	0.000528896
3402	0.000925568
3414	0.00119002
3426	0.00145446
3438	0.00171891
3450	0.00066112
3462	0.000132224
3474	0.000793344
3486	0.000528896
3498	0.00132224
3510	0.000925568
3522	0.00158669
3534	0.00171891
3546	0.00119002
3558	0.00066112
3570	0.00119002
3582	0.000528896
3594	0.00119002
3606	0.000132224
3618	0.00119002
3630	0.00185114
3642	0.00171891
3654	0.00105779
3666	0.00066112
3678	0.00171891
3690	0.000396672
3702	0.000264448
3714	0.000925568
3726	0.00171891
3738	0.00185114
3750	0.00238003
3762	0.00158669
3774	0.000132224
3786	0.000396672
3798	0.00066112
3810	0.00066112
3822	0.00158669
3834	0.00105779
3846	0.000925568
3858	0.00145446
3870	0.00211558
3882	0.00132224
3894	0.00185114
3906	0.00238003
3918	0.00171891
3930	0.000396672
3942	0.00158669
3954	0.00066112
3966	0.000925568
