Infrared Spectrum: 1,1-DICHLOROETHYLENE
Formula: C2 H2 Cl2
CAS: 75-35-4
Class: COBLENTZ
Instrument: Not specified, most likely a prism, grating, or hybrid spectrometer.
Sampling: TRANSMISSION
Path length: 0.0025 CM
Resolution: 4
Origin: W.T. BOLLETER
MICROMETERS	TRANSMITTANCE
14.526	0.289
14.5961	0.296
14.6663	0.303
14.7364	0.326
14.8065	0.37
14.8766	0.423
14.9468	0.466
15.0169	0.489
15.087	0.51
15.1571	0.515
15.2273	0.517
15.2974	0.521
15.3675	0.523
15.4376	0.505
15.5078	0.45
15.5779	0.375
15.648	0.322
15.7181	0.317
15.7883	0.347
15.8584	0.382
15.9285	0.406
15.9986	0.409
16.0688	0.386
16.1389	0.347
16.209	0.297
16.2791	0.226
16.3493	0.161
16.4194	0.104
16.4895	0.063
16.5596	0.04
16.6298	0.03
16.6999	0.026
16.77	0.026
16.8401	0.028
16.9103	0.035
16.9804	0.047
17.0505	0.097
17.1206	0.164
17.1908	0.258
17.2609	0.367
17.331	0.437
17.4011	0.507
17.4713	0.551
17.5414	0.609
17.6115	0.648
17.6816	0.68
17.7518	0.714
17.8219	0.741
17.892	0.765
17.9621	0.789
18.0323	0.806
18.1024	0.817
18.1725	0.829
18.2426	0.84
18.3128	0.845
18.3829	0.851
18.453	0.852
18.5231	0.854
18.5933	0.851
18.6634	0.847
18.7335	0.842
18.8036	0.836
18.8738	0.828
18.9439	0.822
19.014	0.82
19.0841	0.815
19.1543	0.804
19.2244	0.78
19.2945	0.75
19.3646	0.714
19.4348	0.679
19.5049	0.673
19.575	0.689
19.6451	0.728
19.7153	0.762
19.7854	0.787
19.8555	0.799
19.9256	0.808
19.9958	0.812
20.0659	0.81
20.136	0.803
20.2061	0.796
20.2763	0.78
20.3464	0.771
20.4165	0.75
20.4867	0.735
20.5568	0.719
20.6269	0.705
20.697	0.696
20.7672	0.677
20.8373	0.661
20.9074	0.647
20.9775	0.627
21.0477	0.599
21.1178	0.567
21.1879	0.547
21.258	0.512
21.3282	0.475
21.3983	0.429
21.4684	0.367
21.5385	0.294
21.6087	0.221
21.6788	0.154
21.7489	0.099
21.819	0.058
21.8892	0.044
21.9593	0.039
22.0294	0.035
22.0995	0.035
22.1697	0.042
22.2398	0.054
22.3099	0.079
22.38	0.129
22.4502	0.195
22.5203	0.244
22.5904	0.297
22.6605	0.354
22.7307	0.398
22.8008	0.448
22.8709	0.485
22.941	0.524
23.0112	0.562
23.0813	0.597
23.1514	0.625
23.2215	0.65
23.2917	0.666
23.3618	0.679
23.4319	0.687
23.502	0.693
23.5722	0.7
23.6423	0.705
23.7124	0.702
23.7825	0.698
23.8527	0.684
23.9228	0.679
23.9929	0.67
24.063	0.661
24.1332	0.656
24.2033	0.657
24.2734	0.661
24.3435	0.668
24.4137	0.682
24.4838	0.698
24.5539	0.716
24.624	0.725
24.6942	0.737
24.7643	0.746
24.8344	0.767
24.9045	0.789
24.9747	0.797
25.0448	0.799
25.1149	0.799
25.185	0.801
25.2552	0.801
25.3253	0.801
25.3954	0.804
25.4655	0.803
25.5357	0.803
25.6058	0.801
25.6759	0.799
25.746	0.797
25.8162	0.787
25.8863	0.785
25.9564	0.781
26.0265	0.778
26.0967	0.78
26.1668	0.783
26.2369	0.787
26.307	0.783
26.3772	0.778
26.4473	0.767
26.5174	0.753
26.5876	0.728
26.6577	0.689
26.7278	0.661
26.7979	0.64
26.8681	0.632
26.9382	0.634
27.0083	0.654
27.0784	0.68
27.1486	0.705
27.2187	0.741
27.2888	0.762
27.3589	0.787
27.4291	0.797
27.4992	0.804
27.5693	0.81
27.6394	0.806
27.7096	0.804
27.7797	0.803
27.8498	0.79
27.9199	0.783
27.9901	0.781
28.0602	0.783
28.1303	0.799
28.2004	0.819
28.2706	0.836
28.3407	0.861
28.4108	0.877
28.4809	0.89
28.5511	0.909
28.6212	0.92
28.6913	0.927
28.7614	0.932
28.8316	0.936
28.9017	0.941
28.9718	0.95
29.0419	0.953
29.1121	0.955
29.1822	0.96
29.2523	0.962
29.3224	0.962
29.3926	0.964
29.4627	0.966
29.5328	0.966
29.6029	0.971
29.6731	0.975
29.7432	0.973
29.8133	0.971
29.8834	0.973
29.9536	0.973
30.0237	0.969
30.0938	0.971
30.1639	0.969
30.2341	0.969
30.3042	0.971
30.3743	0.976
30.4444	0.973
30.5146	0.971
30.5847	0.968
30.6548	0.964
30.7249	0.96
30.7951	0.959
30.8652	0.955
30.9353	0.953
31.0054	0.95
31.0756	0.943
31.1457	0.939
31.2158	0.937
31.2859	0.934
31.3561	0.934
31.4262	0.932
31.4963	0.929
31.5664	0.921
31.6366	0.914
31.7067	0.911
31.7768	0.907
31.8469	0.906
31.9171	0.904
31.9872	0.902
32.0573	0.9
32.1274	0.898
32.1976	0.898
32.2677	0.897
32.3378	0.897
32.408	0.89
32.4781	0.884
32.5482	0.886
32.6183	0.884
32.6885	0.882
32.7586	0.881
32.8287	0.884
32.8988	0.879
32.969	0.874
33.0391	0.858
33.1092	0.833
33.1793	0.82
33.2495	0.812
33.3196	0.803
33.3897	0.801
33.4598	0.799
33.53	0.797
33.6001	0.799
33.6702	0.801
33.7403	0.803
33.8105	0.806
33.8806	0.812
33.9507	0.817
34.0208	0.82
34.091	0.826
34.1611	0.833
34.2312	0.838
34.3013	0.84
34.3715	0.843
34.4416	0.849
34.5117	0.845
34.5818	0.84
34.652	0.824
34.7221	0.822
34.7922	0.824
34.8623	0.817
34.9325	0.817
35.0026	0.813
35.0727	0.817
35.1428	0.815
35.213	0.813
35.2831	0.813
35.3532	0.813
35.4233	0.813
35.4935	0.806
35.5636	0.801
35.6337	0.796
35.7038	0.787
35.774	0.76
35.8441	0.751
35.9142	0.753
35.9843	0.755
36.0545	0.751
36.1246	0.746
36.1947	0.744
36.2648	0.746
36.335	0.746
36.4051	0.744
36.4752	0.742
36.5453	0.739
36.6155	0.737
36.6856	0.732
36.7557	0.728
36.8258	0.726
36.896	0.723
36.9661	0.723
37.0362	0.719
37.1063	0.719
37.1765	0.719
37.2466	0.714
37.3167	0.71
37.3868	0.705
37.457	0.703
37.5271	0.702
37.5972	0.7
37.6673	0.698
37.7375	0.696
37.8076	0.686
37.8777	0.68
37.9478	0.679
38.018	0.677
38.0881	0.675
