Infrared Spectrum: Ethylene, 1,1-dichloro-
Formula: C2 H2 Cl2
CAS: 75-35-4
State: GAS (100 mmHg, N2 ADDED, TOTAL PRESSURE 600 mmHg)
Class: COBLENTZ
Instrument: DOW KBr FOREPRISM-GRATING
Instrument parameters: GRATING CHANGED AT 5.0, 7.5, 15.0 MICRON
Sampling: TRANSMISSION
Path length: 5 CM
Resolution: 2
Origin: DOW CHEMICAL COMPANY
1/CM	TRANSMITTANCE
462	0.7265
471	0.746
480	0.7905
489	0.8403
498	0.8415
507	0.8425
516	0.843
525	0.845
534	0.8417
543	0.8447
552	0.848
561	0.8486
570	0.8274
579	0.7375
588	0.5069
597	0.3202
606	0.3693
615	0.4237
624	0.695
633	0.8461
642	0.8699
651	0.8717
660	0.8712
669	0.881
678	0.8713
687	0.8821
696	0.8813
705	0.8823
714	0.8818
723	0.8789
732	0.8762
741	0.8735
750	0.859
759	0.7974
768	0.4863
777	0.1151
786	0.0095
795	0.0194
804	0.0097
813	0.4651
822	0.7897
831	0.7983
840	0.6114
849	0.2306
858	0.1671
867	0.2347
876	0.1223
885	0.1585
894	0.4146
903	0.736
912	0.8319
921	0.8054
930	0.8469
939	0.8628
948	0.8746
957	0.8791
966	0.8825
975	0.8835
984	0.8851
993	0.8902
1002	0.8822
1011	0.8752
1020	0.8787
1029	0.8875
1038	0.8902
1047	0.8735
1056	0.8065
1065	0.458
1074	0.0467
1083	0.0141
1092	0.0127
1101	0.0285
1110	0.2255
1119	0.7467
1128	0.4565
1137	0.4474
1146	0.4122
1155	0.7037
1164	0.8757
1173	0.8784
1182	0.8889
1191	0.897
1200	0.8967
1209	0.8989
1218	0.9023
1227	0.9003
1236	0.8904
1245	0.8804
1254	0.878
1263	0.882
1272	0.8853
1281	0.8806
1290	0.8682
1299	0.8484
1308	0.8171
1317	0.836
1326	0.7977
1335	0.8243
1344	0.8374
1353	0.7763
1362	0.7247
1371	0.6778
1380	0.6465
1389	0.6438
1398	0.662
1407	0.7326
1416	0.8526
1425	0.8565
1434	0.8563
1443	0.861
1452	0.8548
1461	0.8635
1470	0.8637
1479	0.8632
1488	0.8617
1497	0.8607
1506	0.8621
1515	0.8591
1524	0.8352
1533	0.7854
1542	0.6821
1551	0.5569
1560	0.3026
1569	0.3498
1578	0.2378
1587	0.5136
1596	0.4408
1605	0.1003
1614	0.021
1623	0.0654
1632	0.0381
1641	0.262
1650	0.6733
1659	0.84
1668	0.8519
1677	0.8499
1686	0.8427
1695	0.8429
1704	0.8471
1713	0.8436
1722	0.8284
1731	0.7903
1740	0.7745
1749	0.7449
1758	0.8004
1767	0.837
1776	0.8538
1785	0.8542
1794	0.8574
1803	0.8547
1812	0.8609
1821	0.8591
1830	0.861
1839	0.8601
1848	0.8567
1857	0.8525
1866	0.8481
1875	0.8471
1884	0.8474
1893	0.8471
1902	0.855
1911	0.8571
1920	0.8541
1929	0.8568
1938	0.8595
1947	0.8617
1956	0.864
1965	0.8631
1974	0.8624
1983	0.8634
1992	0.8654
2001	0.8658
2010	0.8656
2019	0.8654
2028	0.8652
2037	0.865
2046	0.8645
2055	0.864
2064	0.8634
2073	0.8627
2082	0.864
2091	0.8672
2100	0.8678
2109	0.8672
2118	0.8669
2127	0.8665
2136	0.8663
2145	0.8659
2154	0.8651
2163	0.8644
2172	0.8638
2181	0.863
2190	0.8617
2199	0.8598
2208	0.8576
2217	0.8575
2226	0.8589
2235	0.8621
2244	0.868
2253	0.8714
2262	0.8716
2271	0.8711
2280	0.8704
2289	0.8702
2298	0.8705
2307	0.8706
2316	0.87
2325	0.8687
2334	0.8676
2343	0.8746
2352	0.8793
2361	0.879
2370	0.8757
2379	0.8715
2388	0.8674
2397	0.8634
2406	0.8595
2415	0.8544
2424	0.8544
2433	0.8576
2442	0.8653
2451	0.8732
2460	0.8748
2469	0.8764
2478	0.8769
2487	0.877
2496	0.8772
2505	0.8774
2514	0.8776
2523	0.8778
2532	0.8777
2541	0.8774
2550	0.8772
2559	0.8769
2568	0.8767
2577	0.8764
2586	0.8761
2595	0.8757
2604	0.8754
2613	0.8749
2622	0.8746
2631	0.8743
2640	0.8737
2649	0.8731
2658	0.8727
2667	0.8723
2676	0.8717
2685	0.8708
2694	0.8698
2703	0.8702
2712	0.8709
2721	0.8726
2730	0.8727
2739	0.8728
2748	0.8731
2757	0.8738
2766	0.8748
2775	0.8745
2784	0.8734
2793	0.8726
2802	0.8727
2811	0.873
2820	0.8735
2829	0.8747
2838	0.8763
2847	0.8778
2856	0.8723
2865	0.8716
2874	0.8723
2883	0.8727
2892	0.8733
2901	0.8734
2910	0.8725
2919	0.8656
2928	0.8592
2937	0.8576
2946	0.8576
2955	0.8576
2964	0.8584
2973	0.8613
2982	0.8608
2991	0.8598
3000	0.8599
3009	0.8625
3018	0.8632
3027	0.8587
3036	0.8567
3045	0.8566
3054	0.8589
3063	0.8631
3072	0.8653
3081	0.866
3090	0.8666
3099	0.8671
3108	0.8673
3117	0.8672
3126	0.8668
3135	0.8664
3144	0.8654
3153	0.8632
3162	0.8568
3171	0.8475
3180	0.8362
3189	0.8275
3198	0.826
3207	0.8503
3216	0.8624
3225	0.8604
3234	0.8569
3243	0.8555
3252	0.8593
3261	0.8685
3270	0.873
3279	0.873
3288	0.872
3297	0.8712
3306	0.8714
3315	0.8716
3324	0.8719
3333	0.872
3342	0.8723
3351	0.8735
3360	0.8759
3369	0.8763
3378	0.8767
3387	0.8755
3396	0.8739
3405	0.8724
3414	0.8729
3423	0.8749
3432	0.8775
3441	0.8776
3450	0.8773
3459	0.8765
3468	0.8759
3477	0.8743
3486	0.8724
3495	0.8719
3504	0.8728
3513	0.874
3522	0.8752
3531	0.8758
3540	0.8765
3549	0.8773
3558	0.8778
3567	0.8781
3576	0.8777
3585	0.8771
3594	0.8756
3603	0.8739
3612	0.8727
3621	0.8722
3630	0.8722
3639	0.8725
3648	0.873
3657	0.8741
3666	0.8743
3675	0.8719
3684	0.8752
3693	0.8776
3702	0.8773
3711	0.8746
3720	0.8715
3729	0.87
3738	0.875
3747	0.8803
3756	0.8807
3765	0.8802
3774	0.879
3783	0.8775
3792	0.8774
