Infrared Spectrum: n-BUTYL METHYL SULFIDE
Formula: C5 H12 S
CAS: 628-29-5
State: LIQUID
Boiling point: 120-122 C
Class: COBLENTZ
Instrument: Not specified, most likely a prism, grating, or hybrid spectrometer.
Sampling: TRANSMISSION
Path length: 0.005 CM
Resolution: 4
Origin: WYANDOTTE CHEMICALS CORP., WYANDOTTE, MICHIGAN, USA
MICROMETERS	TRANSMITTANCE
2.031	0.986
2.0681	0.99
2.1052	0.981
2.1423	0.961
2.17941	0.829
2.21651	0.776
2.25361	0.807
2.29071	0.846
2.32781	0.866
2.36491	0.871
2.40201	0.888
2.43912	0.902
2.47622	0.903
2.51332	0.905
2.55042	0.914
2.58752	0.922
2.62462	0.925
2.66172	0.917
2.69883	0.903
2.73593	0.911
2.77303	0.919
2.81013	0.919
2.84723	0.911
2.88433	0.924
2.92144	0.919
2.95854	0.917
2.99564	0.913
3.03274	0.906
3.06984	0.882
3.10694	0.837
3.14404	0.806
3.18115	0.784
3.21825	0.745
3.25535	0.685
3.29245	0.477
3.32955	0.037
3.36665	0.029
3.40375	0.023
3.44086	0.026
3.47796	0.038
3.51506	0.102
3.55216	0.452
3.58926	0.655
3.62636	0.72
3.66346	0.691
3.70057	0.79
3.73767	0.781
3.77477	0.765
3.81187	0.817
3.84897	0.838
3.88607	0.854
3.92317	0.84
3.96028	0.851
3.99738	0.858
4.03448	0.875
4.07158	0.874
4.10868	0.866
4.14578	0.855
4.18288	0.855
4.21999	0.829
4.25709	0.832
4.29419	0.844
4.33129	0.844
4.36839	0.849
4.40549	0.852
4.44259	0.823
4.4797	0.846
4.5168	0.855
4.5539	0.871
4.591	0.857
4.6281	0.852
4.6652	0.848
4.70231	0.855
4.73941	0.863
4.77651	0.863
4.81361	0.868
4.85071	0.869
4.88781	0.866
4.92491	0.86
4.96202	0.857
4.99912	0.851
5.03622	0.858
5.07332	0.871
5.11042	0.868
5.14752	0.874
5.18462	0.869
5.22173	0.871
5.25883	0.863
5.29593	0.866
5.33303	0.874
5.37013	0.879
5.40723	0.869
5.44433	0.872
5.48144	0.874
5.51854	0.866
5.55564	0.863
5.59274	0.866
5.62984	0.858
5.66694	0.858
5.70404	0.855
5.74115	0.851
5.77825	0.84
5.81535	0.844
5.85245	0.834
5.88955	0.823
5.92665	0.826
5.96375	0.823
6.00086	0.815
6.03796	0.813
6.07506	0.812
6.11216	0.795
6.14926	0.787
6.18636	0.77
6.22347	0.772
6.26057	0.764
6.29767	0.758
6.33477	0.753
6.37187	0.745
6.40897	0.73
6.44607	0.73
6.48318	0.719
6.52028	0.7
6.55738	0.688
6.59448	0.671
6.63158	0.623
6.66868	0.564
6.70578	0.451
6.74289	0.286
6.77999	0.037
6.81709	0.049
6.85419	0.058
6.89129	0.043
6.92839	0.049
6.96549	0.041
7.0026	0.091
7.0397	0.246
7.0768	0.392
7.1139	0.471
7.151	0.491
7.1881	0.429
7.2252	0.179
7.26231	0.368
7.29941	0.514
7.33651	0.524
7.37361	0.516
7.41071	0.533
7.44781	0.531
7.48491	0.576
7.52202	0.567
7.55912	0.451
7.59622	0.493
7.63332	0.356
7.67042	0.271
7.70752	0.262
7.74462	0.279
7.78173	0.294
7.81883	0.134
7.85593	0.167
7.89303	0.437
7.93013	0.59
7.96723	0.634
8.00434	0.649
8.04144	0.617
8.07854	0.486
8.11564	0.224
8.15274	0.167
8.18984	0.413
8.22694	0.586
8.26405	0.618
8.30115	0.609
8.33825	0.644
8.37535	0.62
8.41245	0.649
8.44955	0.696
8.48665	0.731
8.52376	0.755
8.56086	0.773
8.59796	0.789
8.63506	0.8
8.67216	0.809
8.70926	0.813
8.74636	0.812
8.78347	0.818
8.82057	0.815
8.85767	0.806
8.89477	0.795
8.93187	0.77
8.96897	0.739
9.00607	0.643
9.04318	0.537
9.08028	0.517
9.11738	0.589
9.15448	0.612
9.19158	0.531
9.22868	0.465
9.26578	0.565
9.30289	0.641
9.33999	0.672
9.37709	0.683
9.41419	0.665
9.45129	0.644
9.48839	0.638
9.5255	0.668
9.5626	0.72
9.5997	0.748
9.6368	0.761
9.6739	0.77
9.711	0.762
9.7481	0.765
9.78521	0.756
9.82231	0.745
9.85941	0.727
9.89651	0.706
9.93361	0.694
9.97071	0.669
10.0078	0.652
10.0449	0.662
10.082	0.654
10.1191	0.623
10.1562	0.573
10.1933	0.486
10.2304	0.413
10.2675	0.361
10.3046	0.291
10.3417	0.224
10.3788	0.201
10.4159	0.184
10.453	0.176
10.4901	0.201
10.5272	0.303
10.5643	0.449
10.6014	0.545
10.6385	0.62
10.6756	0.665
10.7127	0.691
10.7498	0.706
10.7869	0.72
10.824	0.714
10.8611	0.702
10.8982	0.679
10.9354	0.655
10.9725	0.658
11.0096	0.666
11.0467	0.657
11.0838	0.62
11.1209	0.607
11.158	0.618
11.1951	0.61
11.2322	0.634
11.2693	0.669
11.3064	0.699
11.3435	0.699
11.3806	0.679
11.4177	0.638
11.4548	0.66
11.4919	0.696
11.529	0.724
11.5661	0.745
11.6032	0.764
11.6403	0.775
11.6774	0.795
11.7145	0.792
11.7516	0.801
11.7887	0.804
11.8258	0.806
11.8629	0.815
11.9	0.817
11.9371	0.81
11.9742	0.812
12.0113	0.815
12.0484	0.813
12.0855	0.813
12.1226	0.812
12.1597	0.81
12.1968	0.81
12.2339	0.81
12.271	0.806
12.3081	0.796
12.3452	0.786
12.3823	0.781
12.4194	0.773
12.4565	0.764
12.4936	0.755
12.5307	0.731
12.5678	0.697
12.6049	0.666
12.642	0.603
12.6791	0.527
12.7162	0.489
12.7533	0.514
12.7904	0.561
12.8275	0.618
12.8646	0.652
12.9017	0.662
12.9388	0.662
12.9759	0.662
13.013	0.651
13.0501	0.634
13.0872	0.598
13.1243	0.575
13.1614	0.542
13.1985	0.493
13.2356	0.457
13.2727	0.412
13.3098	0.373
13.3469	0.327
13.384	0.306
13.4211	0.331
13.4582	0.407
13.4954	0.477
13.5325	0.528
13.5696	0.556
13.6067	0.559
13.6438	0.539
13.6809	0.503
13.718	0.483
13.7551	0.463
13.7922	0.437
13.8293	0.42
13.8664	0.438
13.9035	0.466
13.9406	0.513
13.9777	0.539
14.0148	0.568
14.0519	0.596
14.089	0.623
14.1261	0.643
14.1632	0.66
14.2003	0.663
14.2374	0.644
14.2745	0.62
14.3116	0.59
14.3487	0.556
14.3858	0.517
14.4229	0.519
14.46	0.539
14.4971	0.573
14.5342	0.603
14.5713	0.635
14.6084	0.663
14.6455	0.691
14.6826	0.706
14.7197	0.727
14.7568	0.725
14.7939	0.733
14.831	0.741
14.8681	0.739
14.9052	0.737
14.9423	0.736
14.9794	0.737
15.0165	0.727
15.0536	0.708
15.0907	0.711
15.1278	0.739
15.1649	0.731
15.202	0.734
15.2391	0.73
15.2762	0.722
15.3133	0.713
15.3504	0.706
15.3875	0.691
15.4246	0.682
15.4617	0.669
15.4988	0.669
15.5359	0.679
15.573	0.677
15.6101	0.685
15.6472	0.696
15.6843	0.699
15.7214	0.71
15.7585	0.699
15.7956	0.697
15.8327	0.7
15.8698	0.699
15.9069	0.691
15.944	0.683
15.9811	0.693
