Infrared Spectrum: Isopropylcyclopropane
Formula: C 6 H 12
CAS: 3638-35-5
State: gas
Instrument: HP-GC/MS/IRD
Origin: NIST Mass Spectrometry Data Center
1/CM	ABSORBANCE
550	4.76e-05
562	0.0001496
574	0.0001598
586	0.0001462
598	3.06e-05
610	0.0001496
622	0.0001462
634	9.18e-05
646	0.0001428
658	0.0001122
670	0.0001428
682	0.00017
694	0.0001904
706	0.000255
718	0.0002482
730	0.0002992
742	0.0001836
754	0.0001394
766	0.0001598
778	0.0002958
790	0.000595
802	0.0015368
814	0.0023222
826	0.0022304
838	0.001564
850	0.0014416
862	0.0020094
874	0.002125
886	0.0016966
898	0.0012206
910	0.0012002
922	0.0011594
934	0.0012886
946	0.0015742
958	0.0015504
970	0.0011594
982	0.0008432
994	0.0015266
1006	0.0035428
1018	0.0045152
1030	0.0035734
1042	0.0016388
1054	0.0009384
1066	0.0005304
1078	0.0005644
1090	0.0007854
1102	0.0009078
1114	0.0009282
1126	0.0009146
1138	0.001071
1150	0.0012546
1162	0.0012512
1174	0.001054
1186	0.0007446
1198	0.0007684
1210	0.0008228
1222	0.000697
1234	0.0005304
1246	0.0003842
1258	0.0004352
1270	0.0008976
1282	0.0015946
1294	0.001955
1306	0.0016014
1318	0.0012376
1330	0.000969
1342	0.0010132
1354	0.0017272
1366	0.002771
1378	0.003808
1390	0.0028628
1402	0.0017034
1414	0.0011628
1426	0.001462
1438	0.002278
1450	0.0033014
1462	0.004097
1474	0.0038488
1486	0.0024276
1498	0.001241
1510	0.0005406
1522	0.0002618
1534	0.0001972
1546	0.0001326
1558	0.0001088
1570	0.0001292
1582	0.0001598
1594	0.0001292
1606	0.0001564
1618	0.0001768
1630	0.0001972
1642	0.0001802
1654	0.0001802
1666	0.000187
1678	0.000153
1690	0.0001292
1702	0.0001394
1714	0.0001428
1726	0.0001666
1738	0.0001734
1750	0.000153
1762	0.0001598
1774	0.0001258
1786	0.0001326
1798	0.0001462
1810	0.0001564
1822	0.0001768
1834	0.0001734
1846	0.0001734
1858	0.0002074
1870	0.000204
1882	0.0002142
1894	0.000289
1906	0.00034
1918	0.0003468
1930	0.0002788
1942	0.0001768
1954	0.0001666
1966	0.0001156
1978	0.0001054
1990	0.0001156
2002	0.000119
2014	0.0001394
2026	0.000238
2038	0.0002958
2050	0.0003842
2062	0.0003638
2074	0.0002822
2086	0.0002142
2098	0.0001496
2110	6.8e-05
2122	2.72e-05
2134	5.78e-05
2146	4.08e-05
2158	4.42e-05
2170	4.42e-05
2182	4.42e-05
2194	8.16e-05
2206	9.86e-05
2218	8.5e-05
2230	0.0001054
2242	7.82e-05
2254	0.000102
2266	8.84e-05
2278	4.42e-05
2290	3.74e-05
2302	4.76e-05
2314	3.06e-05
2326	3.74e-05
2338	2.04e-05
2350	1.02e-05
2362	3.4e-06
2374	5.44e-05
2386	9.18e-05
2398	7.14e-05
2410	5.1e-05
2422	4.76e-05
2434	7.48e-05
2446	7.14e-05
2458	0.0001496
2470	0.0001734
2482	0.0002006
2494	0.000153
2506	0.0001292
2518	7.82e-05
2530	0.0001088
2542	9.52e-05
2554	0.0001428
2566	0.000153
2578	0.0001972
2590	0.0002448
2602	0.0002992
2614	0.000289
2626	0.0002856
2638	0.0002516
2650	0.000255
2662	0.0002516
2674	0.0002278
2686	0.0002312
2698	0.0002516
2710	0.0003264
2722	0.0004352
2734	0.0005576
2746	0.0006256
2758	0.0005916
2770	0.0005508
2782	0.0005882
2794	0.0006596
2806	0.0008398
2818	0.0010268
2830	0.0013668
2842	0.0020604
2854	0.0038658
2866	0.0078778
2878	0.0113458
2890	0.0132158
2902	0.0117844
2914	0.0109174
2926	0.012257
2938	0.0159698
2950	0.0235518
2962	0.034
2974	0.0287572
2986	0.019091
2998	0.0143922
3010	0.0116824
3022	0.008976
3034	0.0047668
3046	0.0028016
3058	0.0035258
3070	0.0063852
3082	0.0097512
3094	0.006647
3106	0.003179
3118	0.0012546
3130	0.000782
3142	0.000663
3154	0.0006902
3166	0.0007446
3178	0.000714
3190	0.0006494
3202	0.0004726
3214	0.0003774
3226	0.000272
3238	0.00017
3250	0.00017
3262	0.0001734
3274	0.000153
3286	0.0001938
3298	0.0001938
3310	0.00017
3322	0.0001462
3334	0.0001394
3346	0.0001394
3358	0.0001632
3370	0.0001564
3382	0.000136
3394	9.18e-05
3406	0.0001156
3418	0.000119
3430	0.0001292
3442	0.0001564
3454	9.18e-05
3466	9.18e-05
3478	0.0001326
3490	9.52e-05
3502	8.16e-05
3514	9.52e-05
3526	7.82e-05
3538	8.16e-05
3550	7.14e-05
3562	7.14e-05
3574	3.4e-06
3586	7.14e-05
3598	9.52e-05
3610	1.7e-05
3622	2.72e-05
3634	3.06e-05
3646	3.74e-05
3658	3.4e-05
3670	2.72e-05
3682	4.42e-05
3694	0.000102
3706	5.1e-05
3718	6.12e-05
3730	8.16e-05
3742	9.18e-05
3754	0.0001224
3766	0.0001156
3778	0.0001258
3790	0.0001564
3802	0.00017
3814	0.0002176
3826	0.0002278
3838	0.0001666
