Infrared Spectrum: 3-Bromopentane
Formula: C 5 H 11 Br
CAS: 1809-10-5
State: gas
Instrument: HP-GC/MS/IRD
Origin: NIST Mass Spectrometry Data Center
1/CM	ABSORBANCE
550	0.0003626
562	0.0001708
574	0.0001806
586	0.0003206
598	0.0006174
610	0.0008624
622	0.0006594
634	0.0004536
646	0.0002562
658	7.84e-05
670	0.0001666
682	0.000133
694	0.0001092
706	0.000112
718	7.14e-05
730	5.88e-05
742	9.8e-05
754	0.0001834
766	0.0003752
778	0.0005502
790	0.0008442
802	0.0013748
814	0.001477
826	0.0013944
838	0.001274
850	0.0012824
862	0.0011144
874	0.0008624
886	0.0004578
898	0.0004942
910	0.0005894
922	0.0005656
934	0.0003304
946	0.000161
958	0.0001218
970	0.0001512
982	0.0001946
994	0.0002086
1006	0.000259
1018	0.0004158
1030	0.0004144
1042	0.0004242
1054	0.0003612
1066	0.0003892
1078	0.0003752
1090	0.0002926
1102	0.000504
1114	0.0006076
1126	0.0008708
1138	0.0012698
1150	0.0011984
1162	0.0006412
1174	0.000581
1186	0.0017234
1198	0.002912
1210	0.0022218
1222	0.0007672
1234	0.000455
1246	0.0005026
1258	0.0006412
1270	0.0009604
1282	0.0014014
1294	0.0019236
1306	0.00175
1318	0.0009912
1330	0.0005936
1342	0.0004816
1354	0.000476
1366	0.0006384
1378	0.0012516
1390	0.0016408
1402	0.0009114
1414	0.000476
1426	0.0007084
1438	0.0014532
1450	0.0023884
1462	0.0027062
1474	0.0019936
1486	0.0009744
1498	0.0004592
1510	0.0002632
1522	0.00021
1534	0.0002156
1546	0.0001988
1558	0.0001834
1570	0.0002044
1582	0.0001974
1594	0.000182
1606	0.000161
1618	0.000147
1630	0.0001582
1642	0.0001582
1654	0.0001386
1666	9.66e-05
1678	9.52e-05
1690	6.3e-05
1702	2.38e-05
1714	3.08e-05
1726	4.48e-05
1738	7e-06
1750	2.1e-05
1762	3.5e-05
1774	1.4e-05
1786	3.64e-05
1798	2.94e-05
1810	4.48e-05
1822	3.92e-05
1834	5.18e-05
1846	3.08e-05
1858	3.22e-05
1870	4.9e-05
1882	5.46e-05
1894	6.16e-05
1906	5.04e-05
1918	5.74e-05
1930	5.46e-05
1942	5.74e-05
1954	5.18e-05
1966	6.58e-05
1978	4.48e-05
1990	4.62e-05
2002	4.62e-05
2014	5.6e-05
2026	5.88e-05
2038	5.32e-05
2050	5.18e-05
2062	4.06e-05
2074	4.34e-05
2086	4.62e-05
2098	5.46e-05
2110	4.34e-05
2122	3.5e-05
2134	3.92e-05
2146	2.8e-05
2158	2.8e-05
2170	4.9e-05
2182	3.36e-05
2194	4.06e-05
2206	1.54e-05
2218	1.96e-05
2230	4.9e-05
2242	3.36e-05
2254	3.78e-05
2266	4.48e-05
2278	2.1e-05
2290	1.12e-05
2302	2.8e-05
2314	2.66e-05
2326	7e-06
2338	3.5e-05
2350	4.48e-05
2362	9.8e-06
2374	6.02e-05
2386	6.02e-05
2398	8.68e-05
2410	7.84e-05
2422	7.42e-05
2434	6.16e-05
2446	9.66e-05
2458	4.48e-05
2470	6.3e-05
2482	5.6e-05
2494	5.46e-05
2506	6.44e-05
2518	6.16e-05
2530	7.98e-05
2542	7.28e-05
2554	6.16e-05
2566	8.26e-05
2578	0.000105
2590	8.96e-05
2602	6.58e-05
2614	6.72e-05
2626	7.14e-05
2638	8.68e-05
2650	8.54e-05
2662	8.4e-05
2674	8.96e-05
2686	7.7e-05
2698	0.0001232
2710	0.0001246
2722	0.0001498
2734	0.00021
2746	0.0002296
2758	0.0003024
2770	0.000259
2782	0.000329
2794	0.0003584
2806	0.000455
2818	0.0005768
2830	0.0007896
2842	0.001428
2854	0.0021434
2866	0.0025872
2878	0.003878
2890	0.0052752
2902	0.0054992
2914	0.0053606
2926	0.005439
2938	0.0072072
2950	0.0094192
2962	0.010934
2974	0.014
2986	0.0106484
2998	0.0048132
3010	0.0017066
3022	0.000959
3034	0.0007322
3046	0.0005992
3058	0.0005362
3070	0.0005432
3082	0.0004942
3094	0.0004046
3106	0.0003528
3118	0.0002632
3130	0.0002954
3142	0.0003514
3154	0.0002898
3166	0.0002996
3178	0.0002548
3190	0.0001302
3202	8.96e-05
3214	0.0001204
3226	9.52e-05
3238	6.72e-05
3250	5.74e-05
3262	8.26e-05
3274	6.02e-05
3286	6.02e-05
3298	0.0001134
3310	6.58e-05
3322	2.94e-05
3334	5.88e-05
3346	3.64e-05
3358	5.04e-05
3370	4.48e-05
3382	5.04e-05
3394	6.02e-05
3406	2.38e-05
3418	7.14e-05
3430	4.62e-05
3442	7.98e-05
3454	8.68e-05
3466	4.48e-05
3478	5.74e-05
3490	4.48e-05
3502	2.1e-05
3514	6.86e-05
3526	7.98e-05
3538	7e-05
3550	9.1e-05
3562	8.54e-05
3574	7.28e-05
3586	7.84e-05
3598	7e-05
3610	7.56e-05
3622	6.16e-05
3634	4.06e-05
3646	9.38e-05
3658	9.1e-05
3670	7.42e-05
3682	7e-05
3694	6.58e-05
3706	4.9e-05
3718	9.24e-05
3730	7.98e-05
3742	7.28e-05
3754	0.000112
3766	8.4e-06
3778	6.86e-05
3790	8.82e-05
3802	7.14e-05
3814	5.88e-05
3826	8.82e-05
3838	7.7e-05
