Infrared Spectrum: 4-Methyl-1,3-pentadiene
Formula: C 6 H 10
CAS: 926-56-7
State: gas
Instrument: HP-GC/MS/IRD
Origin: NIST Mass Spectrometry Data Center
1/CM	ABSORBANCE
550	0.0001368
562	4.14e-05
574	1.08e-05
586	0.0002106
598	0.00036
610	0.0006588
622	0.001143
634	0.0017316
646	0.0022356
658	0.002862
670	0.0018666
682	0.0009954
694	0.0005202
706	0.0002556
718	0.0002142
730	0.0002898
742	0.0002268
754	0.0003996
766	0.0003204
778	0.0005526
790	0.00045
802	0.0005508
814	0.0004518
826	0.000621
838	0.0010386
850	0.001305
862	0.0021564
874	0.0044424
886	0.0079002
898	0.0144702
910	0.0095472
922	0.006354
934	0.0028998
946	0.0019242
958	0.0026316
970	0.0042102
982	0.0058392
994	0.0063486
1006	0.0044028
1018	0.0027144
1030	0.0018414
1042	0.0019638
1054	0.0026334
1066	0.0022482
1078	0.0012348
1090	0.0006822
1102	0.0005616
1114	0.0005364
1126	0.0005562
1138	0.0005976
1150	0.000657
1162	0.0006156
1174	0.0005922
1186	0.000738
1198	0.0015192
1210	0.0020934
1222	0.002034
1234	0.0009648
1246	0.0006156
1258	0.0005544
1270	0.0005274
1282	0.000693
1294	0.0008028
1306	0.0009126
1318	0.0009666
1330	0.0011394
1342	0.0014094
1354	0.0018342
1366	0.003096
1378	0.0040194
1390	0.0049482
1402	0.004752
1414	0.004734
1426	0.0045666
1438	0.0039042
1450	0.003861
1462	0.0032004
1474	0.0023958
1486	0.0016722
1498	0.0013428
1510	0.0012834
1522	0.0012186
1534	0.0011862
1546	0.0014256
1558	0.0014076
1570	0.0013626
1582	0.0016416
1594	0.0026604
1606	0.0032238
1618	0.0030204
1630	0.0030816
1642	0.004221
1654	0.00486
1666	0.0037872
1678	0.0017046
1690	0.0006264
1702	0.0004248
1714	0.0003672
1726	0.0004068
1738	0.0002808
1750	0.0002628
1762	0.000279
1774	0.0004014
1786	0.0010782
1798	0.0022536
1810	0.002385
1822	0.0012546
1834	0.000513
1846	0.0003294
1858	0.0002268
1870	0.0002088
1882	0.0002016
1894	0.0001368
1906	0.0001548
1918	0.0001566
1930	0.0001854
1942	0.0002142
1954	0.000279
1966	0.0002412
1978	0.0001224
1990	6.3e-05
2002	4.5e-05
2014	5.94e-05
2026	7.56e-05
2038	9e-06
2050	4.14e-05
2062	2.34e-05
2074	2.52e-05
2086	2.7e-05
2098	5.04e-05
2110	4.32e-05
2122	4.32e-05
2134	1.08e-05
2146	5.04e-05
2158	7.38e-05
2170	7.38e-05
2182	5.94e-05
2194	6.66e-05
2206	4.5e-05
2218	3.6e-06
2230	0
2242	3.24e-05
2254	4.14e-05
2266	3.6e-05
2278	3.6e-05
2290	9.72e-05
2302	6.66e-05
2314	5.22e-05
2326	0.0001134
2338	0.0001332
2350	5.76e-05
2362	0.0001674
2374	0.0001062
2386	0.000117
2398	0.0001548
2410	0.0001494
2422	0.0001062
2434	0.0001242
2446	0.0001242
2458	0.0001476
2470	0.000108
2482	0.0001314
2494	8.46e-05
2506	0.0001224
2518	0.0001278
2530	0.0001368
2542	8.82e-05
2554	8.1e-05
2566	0.0001116
2578	0.000108
2590	9.72e-05
2602	9.72e-05
2614	7.74e-05
2626	9.18e-05
2638	0.0001062
2650	0.0001206
2662	0.0001206
2674	0.000117
2686	0.0001098
2698	0.000243
2710	0.0003132
2722	0.0005526
2734	0.0009684
2746	0.0011304
2758	0.000891
2770	0.0006696
2782	0.0007524
2794	0.0009018
2806	0.0011412
2818	0.0015246
2830	0.0020934
2842	0.0034056
2854	0.006147
2866	0.0085068
2878	0.0097452
2890	0.0106092
2902	0.0126954
2914	0.016722
2926	0.0179712
2938	0.0162522
2950	0.0117306
2962	0.01143
2974	0.0117216
2986	0.0118314
2998	0.0106722
3010	0.0099324
3022	0.0090396
3034	0.0076374
3046	0.0062802
3058	0.0056592
3070	0.0054666
3082	0.0069966
3094	0.0062046
3106	0.004833
3118	0.0020322
3130	0.0009702
3142	0.0006714
3154	0.0004716
3166	0.0004014
3178	0.0003168
3190	0.00027
3202	0.000252
3214	0.0001962
3226	0.0001872
3238	0.000126
3250	0.0001584
3262	0.0001224
3274	0.000153
3286	0.0002196
3298	0.000225
3310	0.0001314
3322	0.0001494
3334	0.0001332
3346	0.0001494
3358	0.0001026
3370	0.0001836
3382	0.0001224
3394	7.74e-05
3406	0.0001026
3418	0.0001098
3430	0.0001044
3442	7.74e-05
3454	3.42e-05
3466	0.0001818
3478	8.1e-05
3490	5.76e-05
3502	8.64e-05
3514	0.0001494
3526	8.82e-05
3538	0.0001098
3550	6.84e-05
3562	5.94e-05
3574	0.0001332
3586	0.0001116
3598	9.9e-05
3610	7.38e-05
3622	5.58e-05
3634	0
3646	6.3e-05
3658	1.8e-05
3670	2.52e-05
3682	4.68e-05
3694	9e-05
3706	0.0001332
3718	5.04e-05
3730	9.18e-05
3742	7.74e-05
3754	0.0001368
3766	9.18e-05
3778	9.18e-05
3790	0.000189
3802	0.0001638
3814	0.000117
3826	0.0001386
3838	0.000189
