Infrared Spectrum: Thiazolidine
Formula: C 3 H 7 N S
CAS: 504-78-9
State: gas
Origin: Sadtler Research Labs Under US-EPA Contract
1/CM	ABSORBANCE
450	0.00732639
462	0.0105984
474	0.0171423
486	0.0223348
498	0.0106695
510	0.00384102
522	0.00547701
534	0.0134436
546	0.0269583
558	0.0286654
570	0.0289499
582	0.00988707
594	0.00149373
606	0.00177825
618	0.00689961
630	0.00490797
642	0.00981594
654	0.0331466
666	0.0715568
678	0.101858
690	0.115515
702	0.0761802
714	0.0614563
726	0.0551258
738	0.0598915
750	0.0985862
762	0.1668
774	0.297964
786	0.558442
798	0.691597
810	0.610722
822	0.352094
834	0.0715568
846	0.0318662
858	0.02518
870	0.0184227
882	0.0175691
894	0.032293
906	0.0808037
918	0.144465
930	0.155277
942	0.0899083
954	0.0352094
966	0.0215524
978	0.0103139
990	0.00817995
1002	0.010385
1014	0.0135858
1026	0.014795
1038	0.0105272
1050	0.00761091
1062	0.0129457
1074	0.0303014
1086	0.0714857
1098	0.104632
1110	0.105059
1122	0.0641593
1134	0.0256068
1146	0.0204854
1158	0.0468747
1170	0.0613852
1182	0.0566195
1194	0.0313683
1206	0.0402596
1218	0.0686405
1230	0.0729794
1242	0.0898372
1254	0.0682137
1266	0.0596781
1278	0.0359918
1290	0.0201298
1302	0.0237574
1314	0.0349248
1326	0.0350671
1338	0.0261047
1350	0.0116653
1362	0.00682848
1374	0.00611718
1386	0.00668622
1398	0.00746865
1410	0.0128745
1422	0.0340001
1434	0.0696363
1446	0.0821552
1458	0.0622388
1470	0.0426069
1482	0.0116653
1494	0.00647283
1506	0.00441006
1518	0.00113808
1530	0.00291633
1542	0.00376989
1554	0.00248955
1566	0.00505023
1578	0.0056904
1590	0.00369876
1602	0.00270294
1614	0.00163599
1626	0.00263181
1638	0.00149373
1650	0.00391215
1662	0.00135147
1674	0.0028452
1686	0.00184938
1698	0.00384102
1710	0.00348537
1722	0.0056904
1734	0.00796656
1746	0.00775317
1758	0.00697074
1770	0.00675735
1782	0.00512136
1794	0.00476571
1806	0.00312972
1818	0.00320085
1830	0.0035565
1842	0.00334311
1854	0.00391215
1866	0.0049791
1878	0.00625944
1890	0.00739752
1902	0.00746865
1914	0.00668622
1926	0.00505023
1938	0.00469458
1950	0.00455232
1962	0.00490797
1974	0.00490797
1986	0.00526362
1998	0.00597492
2010	0.00682848
2022	0.00732639
2034	0.00775317
2046	0.00746865
2058	0.00689961
2070	0.00697074
2082	0.007113
2094	0.00775317
2106	0.00761091
2118	0.00761091
2130	0.00803769
2142	0.00817995
2154	0.00817995
2166	0.00953142
2178	0.0107406
2190	0.0113097
2202	0.0113808
2214	0.0099582
2226	0.00903351
2238	0.00903351
2250	0.00910464
2262	0.00889125
2274	0.00817995
2286	0.007113
2298	0.00455232
2310	0.00106695
2322	0.00014226
2334	0.00014226
2346	0.00028452
2358	0.00014226
2370	0.00014226
2382	0.00675735
2394	0.0108829
2406	0.0099582
2418	0.0092469
2430	0.00874899
2442	0.00803769
2454	0.00846447
2466	0.00832221
2478	0.00832221
2490	0.00882012
2502	0.00860673
2514	0.00882012
2526	0.00931803
2538	0.00988707
2550	0.00988707
2562	0.00917577
2574	0.00882012
2586	0.00839334
2598	0.00860673
2610	0.00910464
2622	0.010385
2634	0.0111674
2646	0.0100293
2658	0.00931803
2670	0.00896238
2682	0.00910464
2694	0.0092469
2706	0.00960255
2718	0.00981594
2730	0.0099582
2742	0.00988707
2754	0.0105984
2766	0.0118076
2778	0.0133724
2790	0.014795
2802	0.0160754
2814	0.0199875
2826	0.0266026
2838	0.040473
2850	0.0601049
2862	0.112457
2874	0.188637
2886	0.221641
2898	0.201582
2910	0.163243
2922	0.160612
2934	0.237574
2946	0.363901
2958	0.469956
2970	0.408073
2982	0.353374
2994	0.204712
3006	0.0938205
3018	0.0399751
3030	0.0206988
3042	0.0165022
3054	0.014795
3066	0.0127323
3078	0.0111674
3090	0.00974481
3102	0.0085356
3114	0.00746865
3126	0.00704187
3138	0.00661509
3150	0.00654396
3162	0.00633057
3174	0.00625944
3186	0.00554814
3198	0.00597492
3210	0.00654396
3222	0.00654396
3234	0.00576153
3246	0.00576153
3258	0.00597492
3270	0.00583266
3282	0.00554814
3294	0.0056904
3306	0.00611718
3318	0.00825108
3330	0.0126611
3342	0.0172846
3354	0.0160043
3366	0.0113097
3378	0.00718413
3390	0.0049791
3402	0.00441006
3414	0.00469458
3426	0.00419667
3438	0.00441006
3450	0.00469458
3462	0.00419667
3474	0.00469458
3486	0.0035565
3498	0.0035565
3510	0.00327198
3522	0.00412554
3534	0.00433893
3546	0.0028452
3558	0.00391215
3570	0.00184938
3582	0.00334311
3594	0.00199164
3606	0.00320085
3618	0.00192051
3630	0.00014226
3642	0.00263181
3654	0.00362763
3666	0.00476571
3678	0.00064017
3690	0.00291633
3702	0.00128034
3714	0.00234729
3726	0.00099582
3738	0.00049791
3750	0.00348537
3762	0.00376989
3774	0.00277407
3786	0.00384102
3798	0.00312972
3810	0.00533475
3822	0.00405441
3834	0.00277407
3846	0.00327198
3858	0.00227616
3870	0.0014226
3882	0.00227616
3894	0.00241842
3906	0.00241842
3918	0.00184938
3930	0.00199164
3942	0.00106695
3954	0.00234729
3966	0.00277407
