Infrared Spectrum: 2-Pentene, 4-methyl-
Formula: C 6 H 12
CAS: 4461-48-7
State: gas
Origin: Sadtler Research Labs Under US-EPA Contract
1/CM	ABSORBANCE
450	0
462	0.0405507
474	0.0669811
486	0.0530418
498	0.0512315
510	0.0539469
522	0.048154
534	0.0526797
546	0.0387404
558	0.054309
570	0.0539469
582	0.0443523
594	0.0526797
606	0.048516
618	0.047973
630	0.0467057
642	0.048335
654	0.0427231
666	0.0412748
678	0.0470678
690	0.0624553
702	0.0827307
714	0.106627
726	0.0990234
738	0.0693345
750	0.0438093
762	0.0503263
774	0.047973
786	0.0430851
798	0.0434472
810	0.0496022
822	0.0517746
834	0.0546711
846	0.0566624
858	0.0526797
870	0.0532228
882	0.0582917
894	0.0635415
906	0.0720499
918	0.0812825
930	0.102463
942	0.170711
954	0.294898
966	0.376542
978	0.363327
990	0.246201
1002	0.139755
1014	0.0836359
1026	0.0727741
1038	0.0691535
1050	0.0639036
1062	0.0626364
1074	0.0651708
1086	0.0695155
1098	0.0791101
1110	0.0867134
1122	0.0754895
1134	0.066257
1146	0.0648087
1158	0.0715068
1170	0.0758516
1182	0.0677052
1194	0.0575675
1206	0.0570244
1218	0.060645
1230	0.0611881
1242	0.0608261
1254	0.0736792
1266	0.078748
1278	0.0682483
1290	0.0814635
1302	0.103549
1314	0.0984803
1326	0.0948597
1338	0.0988424
1350	0.106808
1362	0.141022
1374	0.189538
1386	0.200762
1398	0.152246
1410	0.107351
1422	0.103911
1434	0.133419
1446	0.193702
1458	0.250183
1470	0.272631
1482	0.18809
1494	0.112782
1506	0.0745844
1518	0.0622743
1530	0.0572055
1542	0.0526797
1554	0.0492402
1566	0.0470678
1578	0.0459816
1590	0.0454385
1602	0.0458006
1614	0.0472488
1626	0.048516
1638	0.0499643
1650	0.0515935
1662	0.0555762
1674	0.0575675
1686	0.05449
1698	0.0510505
1710	0.0521366
1722	0.05449
1734	0.0588347
1746	0.0619123
1758	0.0555762
1770	0.0463437
1782	0.0416369
1794	0.0403697
1806	0.0409128
1818	0.0416369
1830	0.0416369
1842	0.0400076
1854	0.0396456
1866	0.0374732
1878	0.0367491
1890	0.036206
1902	0.036206
1914	0.0351198
1926	0.0347578
1938	0.0345767
1950	0.0342147
1962	0.0347578
1974	0.0351198
1986	0.036387
1998	0.0383784
2010	0.0372922
2022	0.0354819
2034	0.0340336
2046	0.0342147
2058	0.0340336
2070	0.0338526
2082	0.0327664
2094	0.0329475
2106	0.0331285
2118	0.0331285
2130	0.0333095
2142	0.0331285
2154	0.0333095
2166	0.0327664
2178	0.0329475
2190	0.0338526
2202	0.0338526
2214	0.0333095
2226	0.0334906
2238	0.0327664
2250	0.0327664
2262	0.0333095
2274	0.0345767
2286	0.0358439
2298	0.0353009
2310	0.0336716
2322	0.0318613
2334	0.0318613
2346	0.0322233
2358	0.0349388
2370	0.0367491
2382	0.0365681
2394	0.036025
2406	0.0358439
2418	0.036025
2430	0.0356629
2442	0.0354819
2454	0.0349388
2466	0.0356629
2478	0.0358439
2490	0.0354819
2502	0.0349388
2514	0.0354819
2526	0.0353009
2538	0.0351198
2550	0.0351198
2562	0.0376542
2574	0.0398266
2586	0.0407317
2598	0.0405507
2610	0.0400076
2622	0.0389214
2634	0.0391025
2646	0.0391025
2658	0.0391025
2670	0.0391025
2682	0.0392835
2694	0.0401887
2706	0.0443523
2718	0.0521366
2730	0.0622743
2742	0.0678862
2754	0.0657139
2766	0.0566624
2778	0.0559383
2790	0.0586537
2802	0.0653518
2814	0.0756705
2826	0.0839979
2838	0.101558
2850	0.153875
2862	0.348483
2874	0.635234
2886	0.681397
2898	0.622743
2910	0.615502
2922	0.738964
2934	0.901348
2946	1.00417
2958	1.39592
2970	1.68774
2982	1.26721
2994	0.537478
3006	0.335087
3018	0.304673
3030	0.278967
3042	0.21977
3054	0.151703
3066	0.110247
3078	0.0912391
3090	0.0794722
3102	0.0706017
3114	0.0653518
3126	0.0640846
3138	0.0626364
3150	0.060283
3162	0.0579296
3174	0.054128
3186	0.0524987
3198	0.0508694
3210	0.0472488
3222	0.0441713
3234	0.0410938
3246	0.0376542
3258	0.0354819
3270	0.0354819
3282	0.0349388
3294	0.0371111
3306	0.0378353
3318	0.0369301
3330	0.0349388
3342	0.0349388
3354	0.036387
3366	0.036387
3378	0.036387
3390	0.0367491
3402	0.036387
3414	0.036387
3426	0.0367491
3438	0.036025
3450	0.0343957
3462	0.0338526
3474	0.0336716
3486	0.0338526
3498	0.0336716
3510	0.0336716
3522	0.0338526
3534	0.0334906
3546	0.0331285
3558	0.0338526
3570	0.0334906
3582	0.0334906
3594	0.0333095
3606	0.0327664
3618	0.0325854
3630	0.0342147
3642	0.0340336
3654	0.0343957
3666	0.0334906
3678	0.0333095
3690	0.0327664
3702	0.0342147
3714	0.0347578
3726	0.0340336
3738	0.0342147
3750	0.0347578
3762	0.0340336
3774	0.0345767
3786	0.036206
3798	0.036206
3810	0.0380163
3822	0.0345767
3834	0.0365681
3846	0.036206
3858	0.0349388
3870	0.036025
3882	0.0369301
3894	0.0351198
3906	0.0351198
3918	0.036025
3930	0.0347578
3942	0.0333095
3954	0.0371111
3966	0.0371111
