Infrared Spectrum: PROPANE, 1,2-DIBROMO-3-CHLORO-
Formula: C3 H5 Br2 Cl
CAS: 96-12-8
State: NEAT
Class: COBLENTZ III
Instrument: BECKMAN IR-9 (GRATING)
Instrument parameters: ORDER CHANGES AT 670, 1200, 2000 CM^-^1
Sampling: TRANSMISSION
Path length: 0.0012 CM
Resolution: 4
Origin: DOW CHEMICAL COMPANY
1/CM	TRANSMITTANCE
381.98	0.536
390.546	0.51
399.112	0.501
407.678	0.571
416.244	0.649
424.81	0.703
433.376	0.762
441.942	0.806
450.508	0.832
459.074	0.772
467.64	0.782
476.206	0.879
484.772	0.895
493.338	0.895
501.904	0.7691
510.47	0.7969
519.036	0.914
527.602	0.925
536.168	0.912
544.734	0.91
553.3	0.892
561.866	0.6455
570.432	0.1675
578.998	0.2439
587.564	0.631
596.13	0.715
604.696	0.837
613.262	0.912
621.828	0.923
630.394	0.904
638.96	0.806
647.526	0.5651
656.092	0.492
664.658	0.6929
673.224	0.796
681.79	0.854
690.356	0.89
698.922	0.879
707.488	0.781
716.054	0.47
724.62	0.282
733.186	0.3898
741.752	0.6359
750.318	0.7369
758.884	0.844
767.45	0.844
776.016	0.892
784.582	0.916
793.148	0.934
801.714	0.942
810.279	0.948
818.845	0.95
827.411	0.945
835.977	0.931
844.543	0.879
853.109	0.605
861.675	0.774
870.241	0.539
878.807	0.807
887.373	0.796
895.939	0.673
904.505	0.8149
913.071	0.756
921.637	0.9119
930.203	0.922
938.769	0.944
947.335	0.953
955.901	0.936
964.467	0.763
973.033	0.711
981.599	0.863
990.165	0.929
998.731	0.944
1007.3	0.929
1015.86	0.944
1024.43	0.934
1033	0.95
1041.56	0.957
1050.13	0.956
1058.69	0.95
1067.26	0.931
1075.83	0.9011
1084.39	0.888
1092.96	0.888
1101.52	0.919
1110.09	0.928
1118.66	0.8191
1127.22	0.819
1135.79	0.844
1144.35	0.744
1152.92	0.741
1161.49	0.6245
1170.05	0.4478
1178.62	0.8059
1187.18	0.824
1195.75	0.4471
1204.32	0.5209
1212.88	0.734
1221.45	0.608
1230.01	0.819
1238.58	0.677
1247.14	0.586
1255.71	0.5853
1264.28	0.7819
1272.84	0.759
1281.41	0.69
1289.97	0.6199
1298.54	0.89
1307.11	0.92
1315.67	0.917
1324.24	0.853
1332.8	0.6292
1341.37	0.7818
1349.94	0.92
1358.5	0.938
1367.07	0.947
1375.63	0.954
1384.2	0.929
1392.77	0.944
1401.33	0.929
1409.9	0.837
1418.46	0.409
1427.03	0.2329
1435.6	0.3718
1444.16	0.7429
1452.73	0.894
1461.29	0.929
1469.86	0.941
1478.43	0.954
1486.99	0.963
1495.56	0.969
1504.12	0.975
1512.69	0.978
1521.26	0.978
1529.82	0.979
1538.39	0.98
1546.95	0.98
1555.52	0.982
1564.09	0.983
1572.65	0.982
1581.22	0.98
1589.78	0.979
1598.35	0.976
1606.92	0.964
1615.48	0.97
1624.05	0.97
1632.61	0.975
1641.18	0.978
1649.75	0.979
1658.31	0.979
1666.88	0.979
1675.44	0.979
1684.01	0.98
1692.58	0.982
1701.14	0.983
1709.71	0.985
1718.27	0.985
1726.84	0.985
1735.41	0.982
1743.97	0.983
1752.54	0.985
1761.1	0.986
1769.67	0.986
1778.24	0.986
1786.8	0.986
1795.37	0.985
1803.93	0.985
1812.5	0.985
1821.07	0.985
1829.63	0.985
1838.2	0.986
1846.76	0.986
1855.33	0.986
1863.9	0.985
1872.46	0.986
1881.03	0.988
1889.59	0.986
1898.16	0.985
1906.73	0.986
1915.29	0.985
1923.86	0.985
1932.42	0.983
1940.99	0.983
1949.56	0.983
1958.12	0.985
1966.69	0.986
1975.25	0.985
1983.82	0.985
1992.39	0.985
2000.95	0.982
2009.52	0.982
2018.08	0.9856
2026.65	0.989
2035.22	0.989
2043.78	0.989
2052.35	0.989
2060.91	0.989
2069.48	0.989
2078.05	0.989
2086.61	0.991
2095.18	0.991
2103.74	0.991
2112.31	0.991
2120.88	0.991
2129.44	0.992
2138.01	0.992
2146.57	0.992
2155.14	0.992
2163.71	0.992
2172.27	0.992
2180.84	0.992
2189.4	0.992
2197.97	0.992
2206.54	0.992
2215.1	0.992
2223.67	0.992
2232.23	0.992
2240.8	0.992
2249.37	0.992
2257.93	0.992
2266.5	0.991
2275.06	0.9857
2283.63	0.978
2292.2	0.975
2300.76	0.973
2309.33	0.973
2317.89	0.975
2326.46	0.975
2335.03	0.975
2343.59	0.975
2352.16	0.9779
2360.72	0.985
2369.29	0.986
2377.86	0.988
2386.42	0.988
2394.99	0.988
2403.55	0.985
2412.12	0.9812
2420.69	0.983
2429.25	0.986
2437.82	0.986
2446.38	0.988
2454.95	0.988
2463.52	0.988
2472.08	0.988
2480.65	0.988
2489.21	0.988
2497.78	0.988
2506.35	0.9873
2514.91	0.986
2523.48	0.9869
2532.04	0.989
2540.61	0.989
2549.18	0.989
2557.74	0.989
2566.31	0.991
2574.87	0.991
2583.44	0.9918
2592.01	0.992
2600.57	0.992
2609.14	0.992
2617.7	0.992
2626.27	0.9922
2634.84	0.992
2643.4	0.992
2651.97	0.991
2660.53	0.986
2669.1	0.983
2677.67	0.9803
2686.23	0.983
2694.8	0.9865
2703.36	0.989
2711.93	0.9844
2720.5	0.9847
2729.06	0.988
2737.63	0.989
2746.19	0.989
2754.76	0.989
2763.33	0.989
2771.89	0.989
2780.46	0.989
2789.02	0.989
2797.59	0.989
2806.16	0.988
2814.72	0.9864
2823.29	0.982
2831.85	0.9754
2840.42	0.9553
2848.99	0.95
2857.55	0.952
2866.12	0.956
2874.68	0.9636
2883.25	0.972
2891.82	0.9757
2900.38	0.975
2908.95	0.9693
2917.51	0.966
2926.08	0.9572
2934.65	0.9406
2943.21	0.8904
2951.78	0.7694
2960.34	0.7117
2968.91	0.7582
2977.47	0.8005
2986.04	0.828
2994.61	0.8818
3003.17	0.892
3011.74	0.8878
3020.3	0.873
3028.87	0.8597
3037.44	0.8545
3046	0.8613
3054.57	0.8996
3063.13	0.9239
3071.7	0.938
3080.27	0.9445
3088.83	0.9511
3097.4	0.958
3105.96	0.963
3114.53	0.964
3123.1	0.966
3131.66	0.967
3140.23	0.969
3148.79	0.97
3157.36	0.97
3165.93	0.97
3174.49	0.97
3183.06	0.97
3191.62	0.97
3200.19	0.97
3208.76	0.969
3217.32	0.9686
3225.89	0.967
3234.45	0.969
3243.02	0.969
3251.59	0.969
3260.15	0.969
3268.72	0.969
3277.28	0.967
3285.85	0.9665
3294.42	0.966
3302.98	0.966
3311.55	0.963
3320.11	0.96
3328.68	0.957
3337.25	0.956
3345.81	0.954
3354.38	0.954
3362.94	0.954
3371.51	0.956
3380.08	0.957
3388.64	0.957
3397.21	0.956
3405.77	0.954
3414.34	0.954
3422.91	0.953
3431.47	0.953
3440.04	0.953
3448.6	0.9555
3457.17	0.957
3465.74	0.957
3474.3	0.954
3482.87	0.953
3491.43	0.957
3500	0.958
3508.57	0.96
3517.13	0.9601
3525.7	0.961
3534.26	0.961
3542.83	0.961
3551.4	0.961
3559.96	0.96
3568.53	0.96
3577.09	0.96
3585.66	0.958
3594.23	0.9571
3602.79	0.9565
3611.36	0.956
3619.92	0.954
3628.49	0.954
3637.06	0.954
3645.62	0.9572
3654.19	0.9594
3662.75	0.9595
3671.32	0.956
3679.89	0.953
3688.45	0.9539
3697.02	0.956
3705.58	0.957
3714.15	0.958
3722.72	0.958
3731.28	0.957
3739.85	0.956
3748.41	0.956
3756.98	0.956
3765.55	0.957
3774.11	0.958
3782.68	0.9596
3791.24	0.961
3799.81	0.961
