Infrared Spectrum: Propane, 1,2-dibromo-3-chloro-
Formula: C 3 H 5 Br 2 Cl
CAS: 96-12-8
State: gas
Origin: Sadtler Research Labs Under US-EPA Contract
1/CM	ABSORBANCE
450	0.135957
462	0.140513
474	0.119432
486	0.124166
498	0.180532
510	0.158915
522	0.116394
534	0.121843
546	0.138369
558	0.201524
570	0.599659
582	0.76438
594	0.251101
606	0.194199
618	0.100583
630	0.0945984
642	0.138101
654	0.257711
666	0.208224
678	0.0829857
690	0.0562766
702	0.0388577
714	0.11693
726	0.321581
738	0.552494
750	0.205276
762	0.0883454
774	0.0543114
786	0.0310861
798	0.0127739
810	8.9328e-05
822	0.0050917
834	0.0239399
846	0.106836
858	0.151411
870	0.172671
882	0.0989754
894	0.11434
906	0.0796806
918	0.0619043
930	0.0209028
942	0.00428774
954	0.0136672
966	0.0929011
978	0.0821818
990	0.0158111
1002	0.0139352
1014	0.0145605
1026	0.00777154
1038	0.00250118
1050	0.00366245
1062	0.0113447
1074	0.0314435
1086	0.0286743
1098	0.0149178
1110	0.0181336
1122	0.072445
1134	0.0920972
1146	0.160433
1158	0.173922
1170	0.205186
1182	0.0785193
1194	0.184105
1206	0.349898
1218	0.268431
1230	0.159986
1242	0.216263
1254	0.308986
1266	0.220015
1278	0.181782
1290	0.161058
1302	0.0643162
1314	0.0316221
1326	0.0876308
1338	0.189107
1350	0.0728023
1362	0.0095581
1374	0.00920078
1386	0.0105407
1398	0.00964742
1410	0.0324261
1422	0.204114
1434	0.424129
1446	0.288708
1458	0.0522569
1470	0.0120593
1482	0.0089328
1494	0.00687826
1506	0.00902213
1518	0.00464506
1530	0.00366245
1542	0.00419842
1554	0.00616363
1566	0.00089328
1578	0.000982608
1590	0.00214387
1602	0.00330514
1614	0.0044664
1626	0.00312648
1638	0.00339446
1650	0.00187589
1662	0.0022332
1674	0.00205454
1686	0.00267984
1698	0.00241186
1710	0.0028585
1722	0.00348379
1734	0.00723557
1746	0.00741422
1758	0.00589565
1770	0.00401976
1782	0.00294782
1794	0.00250118
1806	0.00294782
1818	0.00357312
1830	0.00294782
1842	0.00276917
1854	0.00294782
1866	0.00259051
1878	0.00214387
1890	0.00267984
1902	0.00294782
1914	0.00250118
1926	0.00303715
1938	0.00321581
1950	0.00232253
1962	0.00151858
1974	0.00214387
1986	0.00241186
1998	0.00294782
2010	0.00375178
2022	0.00357312
2034	0.00321581
2046	0.00321581
2058	0.00339446
2070	0.00455573
2082	0.00464506
2094	0.00393043
2106	0.00366245
2118	0.00312648
2130	0.00321581
2142	0.00321581
2154	0.00294782
2166	0.00259051
2178	0.00410909
2190	0.0050917
2202	0.00464506
2214	0.00410909
2226	0.00366245
2238	0.00410909
2250	0.00419842
2262	0.00571699
2274	0.00678893
2286	0.0100047
2298	0.0100941
2310	0.00946877
2322	0.00991541
2334	0.00777154
2346	0.0066996
2358	0.00625296
2370	0.0016079
2382	0.00393043
2394	0.00553834
2406	0.00714624
2418	0.00562766
2430	0.00401976
2442	0.00473438
2454	0.0050917
2466	0.0060743
2478	0.00464506
2490	0.00491304
2502	0.00401976
2514	0.00348379
2526	0.00294782
2538	0.00241186
2550	0.00142925
2562	0.00259051
2574	0.00303715
2586	0.00196522
2598	0.00044664
2610	0.000982608
2622	0.00089328
2634	0.00151858
2646	0.00214387
2658	0.00357312
2670	0.00589565
2682	0.00518102
2694	0.00330514
2706	0.00312648
2718	0.0050917
2730	0.00321581
2742	0.00125059
2754	0.00107194
2766	0.0022332
2778	0.0016079
2790	0.000625296
2802	0.00125059
2814	0.00196522
2826	0.00348379
2838	0.0100941
2850	0.0184016
2862	0.0170616
2874	0.0129526
2886	0.00571699
2898	0.0038411
2910	0.00562766
2922	0.00580632
2934	0.0083075
2946	0.0301929
2958	0.112464
2970	0.17142
2982	0.11032
2994	0.0606537
3006	0.0288529
3018	0.0254585
3030	0.0169723
3042	0.0060743
3054	0.00393043
3066	0.00348379
3078	0.00330514
3090	0.00241186
3102	0.00187589
3114	0.00196522
3126	0.0016079
3138	0.00178656
3150	0.00187589
3162	0.0028585
3174	0.00250118
3186	0.00178656
3198	0.00142925
3210	0.00196522
3222	0.00196522
3234	0.00178656
3246	0.00125059
3258	0.00116126
3270	0.00142925
3282	0.00250118
3294	0.00116126
3306	0.000803952
3318	0.00187589
3330	0.00294782
3342	0.00187589
3354	0.00232253
3366	0.000982608
3378	0.00151858
3390	0.00089328
3402	0.00125059
3414	0.00089328
3426	0.00178656
3438	0.00241186
3450	0.0016079
3462	0.00178656
3474	0.00142925
3486	0.00142925
3498	0.00196522
3510	0.000357312
3522	0.00187589
3534	0.00125059
3546	0.000803952
3558	0.00294782
3570	0.0022332
3582	0.00187589
3594	0.0016079
3606	0.00232253
3618	0.00330514
3630	0.00330514
3642	0.00357312
3654	0.000535968
3666	0.0022332
3678	0.00205454
3690	0.00312648
3702	0.00348379
3714	0.00437707
3726	0.00455573
3738	0.00232253
3750	0.00241186
3762	0.00250118
3774	0.00196522
3786	0.0022332
3798	0.00241186
3810	0.00330514
3822	0.00267984
3834	0.00259051
3846	0.00348379
3858	0.00214387
3870	0.00312648
3882	0.00410909
3894	0.0028585
3906	0.00294782
3918	0.00357312
3930	0.00312648
3942	0.00348379
3954	0.00616363
3966	0.00357312
