Infrared Spectrum: PROPANE, 1,2-DIBROMO-3-CHLORO-
Formula: C3 H5 Br2 Cl
CAS: 96-12-8
State: SOLUTION (10% IN CCl4 FOR 3800-1330, 10% IN CS2 FOR 1330-450 CM^-^1)
Class: COBLENTZ III
Instrument: DOW KBr FOREPRISM-GRATING
Instrument parameters: BLAZED AT 3.5, 12.0, 20.0 MICRON, CHANGED AT 5.0, 7.5, 14.9 MICRON
Sampling: TRANSMISSION
Path length: 0.011, 0.011 CM
Resolution: 4
Origin: DOW CHEMICAL COMPANY
1/CM	TRANSMITTANCE
424.953	0.923
433.503	0.923
442.052	0.921
450.602	0.917
459.152	0.911
467.702	0.955
476.251	0.98
484.801	0.997
493.351	1.001
501.901	0.942
510.45	0.977
519	1.033
527.55	1.036
536.1	1.031
544.649	1.028
553.199	1.017
561.749	0.983
570.299	0.7171
578.848	0.364
587.398	0.824
595.948	0.912
604.498	1.005
613.047	1.031
621.597	1.029
630.147	1.013
638.696	0.97
647.246	0.8
655.796	0.719
664.346	0.877
672.895	0.949
681.445	0.958
689.995	1.004
698.545	1.002
707.094	0.98
715.644	0.912
724.194	0.713
732.744	0.556
741.293	0.852
749.843	0.917
758.393	0.977
766.943	0.991
775.492	0.991
784.042	1.004
792.592	1.008
801.142	1.016
809.691	1.022
818.241	1.017
826.791	1.011
835.34	0.995
843.89	0.933
852.44	0.7189
860.99	0.782
869.539	0.6971
878.089	0.861
886.639	0.893
895.189	0.85
903.738	0.936
912.288	0.923
920.838	1.002
929.388	1.016
937.937	1.023
946.487	1.026
955.037	1.022
963.587	0.983
972.136	0.85
980.686	0.951
989.236	1.019
997.786	1.019
1006.34	1.025
1014.88	1.017
1023.43	1.022
1031.98	1.026
1040.53	1.023
1049.08	1.025
1057.63	1.022
1066.18	1.016
1074.73	0.997
1083.28	0.988
1091.83	1
1100.38	1.013
1108.93	1.013
1117.48	0.98
1126.03	0.974
1134.58	0.98
1143.13	0.862
1151.68	0.918
1160.23	0.909
1168.78	0.6351
1177.33	0.96
1185.88	0.968
1194.43	0.914
1202.98	0.7529
1211.53	0.915
1220.08	0.802
1228.63	0.96
1237.18	0.92
1245.73	0.809
1254.28	0.6829
1262.83	0.924
1271.38	0.917
1279.93	0.877
1288.48	0.7562
1297.03	0.955
1305.58	0.986
1314.13	0.985
1322.68	0.961
1331.23	0.874
1339.78	0.734
1348.32	0.96
1356.87	0.983
1365.42	0.986
1373.97	0.989
1382.52	0.992
1391.07	0.988
1399.62	0.982
1408.17	0.967
1416.72	0.912
1425.27	0.706
1433.82	0.66
1442.37	0.778
1450.92	0.942
1459.47	0.961
1468.02	0.964
1476.57	0.957
1485.12	0.936
1493.67	0.914
1502.22	0.859
1510.77	0.797
1519.32	0.745
1527.87	0.707
1536.42	0.621
1544.97	0.514
1553.52	0.493
1562.07	0.57
1570.62	0.651
1579.17	0.697
1587.72	0.725
1596.27	0.794
1604.82	0.89
1613.37	0.936
1621.92	0.968
1630.47	0.98
1639.02	0.992
1647.57	1
1656.12	1
1664.67	0.998
1673.21	1
1681.76	1.002
1690.31	1.002
1698.86	1.001
1707.41	1.002
1715.96	1.002
1724.51	1.001
1733.06	1.001
1741.61	1.001
1750.16	1.001
1758.71	1.002
1767.26	1.002
1775.81	1.001
1784.36	1.001
1792.91	1.001
1801.46	1
1810.01	0.997
1818.56	0.995
1827.11	0.997
1835.66	0.998
1844.21	0.997
1852.76	0.997
1861.31	0.998
1869.86	0.998
1878.41	1.001
1886.96	1.002
1895.51	1.002
1904.06	1.002
1912.61	1.002
1921.16	1.004
1929.71	1.002
1938.26	1.001
1946.81	1.001
1955.36	1.001
1963.91	1.001
1972.46	1.001
1981.01	1
1989.56	1
1998.1	0.998
2006.65	1.001
2015.2	1.004
2023.75	1.007
2032.3	1.008
2040.85	1.0106
2049.4	1.0097
2057.95	1.0056
2066.5	1.008
2075.05	1.01
2083.6	1.008
2092.15	1.007
2100.7	1.005
2109.25	1.008
2117.8	1.008
2126.35	1.007
2134.9	1.007
2143.45	1.007
2152	1.0075
2160.55	1.008
2169.1	1.007
2177.65	1.007
2186.2	1.0075
2194.75	1.008
2203.3	1.0074
2211.85	1.0068
2220.4	1.004
2228.95	1.0036
2237.5	1.0013
2246.05	1
2254.6	0.998
2263.15	0.995
2271.7	0.9894
2280.25	0.9797
2288.8	0.9743
2297.35	0.974
2305.9	0.977
2314.45	0.9808
2323	0.9849
2331.54	0.989
2340.09	0.994
2348.64	0.997
2357.19	1.0021
2365.74	1.004
2374.29	1.002
2382.84	1.001
2391.39	0.9997
2399.94	0.998
2408.49	1.001
2417.04	1.002
2425.59	1.002
2434.14	1.004
2442.69	1.004
2451.24	1.004
2459.79	1.004
2468.34	1.004
2476.89	1.004
2485.44	1.004
2493.99	1.004
2502.54	1.002
2511.09	1.004
2519.64	1.005
2528.19	1.0061
2536.74	1.008
2545.29	1.007
2553.84	1.004
2562.39	1.0063
2570.94	1.007
2579.49	1.0056
2588.04	1.004
2596.59	1.005
2605.14	1.007
2613.69	1.007
2622.24	1.0063
2630.79	1.0023
2639.34	1.002
2647.89	1.002
2656.43	1.002
2664.98	1.002
2673.53	1.002
2682.08	1.002
2690.63	1.001
2699.18	1.002
2707.73	1.0046
2716.28	1.007
2724.83	1.0057
2733.38	1.004
2741.93	1.001
2750.48	1.002
2759.03	1.002
2767.58	1.004
2776.13	1.004
2784.68	1.005
2793.23	1.005
2801.78	1.004
2810.33	1.0022
2818.88	1.001
2827.43	0.9981
2835.98	0.9825
2844.53	0.994
2853.08	0.995
2861.63	1
2870.18	1.0031
2878.73	1.007
2887.28	1.0044
2895.83	1.001
2904.38	1
2912.93	0.997
2921.48	0.995
2930.03	0.9903
2938.58	0.9799
2947.13	0.9345
2955.68	0.8818
2964.23	0.9113
2972.78	0.9326
2981.32	0.9486
2989.87	0.9788
2998.42	0.9839
3006.97	0.985
3015.52	0.985
3024.07	0.983
3032.62	0.982
3041.17	0.98
3049.72	0.9848
3058.27	0.995
3066.82	0.998
3075.37	1.0002
3083.92	1.002
3092.47	1.005
3101.02	1.005
3109.57	1.007
3118.12	1.007
3126.67	1.007
3135.22	1.007
3143.77	1.007
3152.32	1.007
3160.87	1.0074
3169.42	1.008
3177.97	1.008
3186.52	1.007
3195.07	1.007
3203.62	1.0081
3212.17	1.008
3220.72	1.0071
3229.27	1.01
3237.82	1.011
3246.37	1.011
3254.92	1.013
3263.47	1.013
3272.02	1.0095
3280.57	1.0108
3289.12	1.013
3297.67	1.013
3306.22	1.013
3314.76	1.0112
3323.31	1.011
3331.86	1.013
3340.41	1.014
3348.96	1.014
3357.51	1.014
3366.06	1.014
3374.61	1.014
3383.16	1.0139
3391.71	1.013
3400.26	1.0127
3408.81	1.008
3417.36	1.016
3425.91	1.014
3434.46	1.014
3443.01	1.013
3451.56	1.013
3460.11	1.014
3468.66	1.0123
3477.21	1.01
3485.76	1.01
3494.31	1.011
3502.86	1.0119
3511.41	1.01
3519.96	1.008
3528.51	1.011
3537.06	1.01
3545.61	1.007
3554.16	1.0092
3562.71	1.011
3571.26	1.011
3579.81	1.008
3588.36	1.01
3596.91	1.008
3605.46	1.0095
3614.01	1.01
3622.56	1.007
3631.11	1.007
3639.65	1.0097
3648.2	1.0104
3656.75	1.011
3665.3	1.008
3673.85	1.007
3682.4	1.005
3690.95	1.004
3699.5	1.002
3708.05	1.004
3716.6	1.005
3725.15	1.0071
3733.7	1.008
3742.25	1.01
3750.8	1.01
3759.35	1.01
3767.9	1.01
3776.45	1.008
3785	1.007
3793.55	1.0077
