Infrared Spectrum: Morpholine
Formula: C 4 H 9 N O
CAS: 110-91-8
State: gas
Origin: Sadtler Research Labs Under US-EPA Contract
1/CM	ABSORBANCE
450	0.0229146
462	0.0107013
474	0.00639749
486	0.00139582
498	0.00569958
510	0.00744435
522	0.0115155
534	0.0162845
546	0.020472
558	0.0602527
570	0.191227
582	0.293354
594	0.220888
606	0.08119
618	0.0246594
630	0.00953808
642	0.0162845
654	0.0136092
666	0.0110502
678	0.0290795
690	0.0471088
702	0.0669992
714	0.100964
726	0.161217
738	0.323131
750	0.551347
762	0.660337
774	0.413045
786	0.205999
798	0.0618812
810	0.038036
822	0.063277
834	0.105384
846	0.0871222
858	0.0716519
870	0.088518
882	0.174361
894	0.311383
906	0.230891
918	0.105035
930	0.0239615
942	0.00593222
954	0.00290795
966	0.00395481
978	0.00360586
990	0.00930544
1002	0.0209372
1014	0.0588569
1026	0.0953808
1038	0.11248
1050	0.0973582
1062	0.128531
1074	0.110037
1086	0.268811
1098	0.614973
1110	0.832953
1122	0.757928
1134	0.588918
1146	0.377103
1158	0.240429
1170	0.0590895
1182	0.040595
1194	0.0571121
1206	0.0640912
1218	0.0771188
1230	0.0903791
1242	0.103407
1254	0.0974745
1266	0.0673481
1278	0.0652544
1290	0.0663013
1302	0.139
1314	0.214723
1326	0.230193
1338	0.206115
1350	0.109455
1362	0.0963113
1374	0.0476904
1386	0.0381523
1398	0.028149
1410	0.0246594
1422	0.0410603
1434	0.0857264
1446	0.14912
1458	0.185876
1470	0.0953808
1482	0.0435029
1494	0.0137255
1506	0.00546695
1518	0.00348954
1530	0.00221004
1542	0.00197741
1554	0.00511799
1566	0.00267531
1578	0.0083749
1590	0.00616485
1602	0.0058159
1614	0.00674644
1626	0.00465272
1638	0.00663013
1650	0.0045364
1662	0.00732803
1674	0.00790962
1686	0.0103523
1698	0.00616485
1710	0.0058159
1722	0.00790962
1734	0.0058159
1746	0.00290795
1758	0.00360586
1770	0.00348954
1782	0.00360586
1794	0.00221004
1806	0.00360586
1818	0.00244268
1830	0.00151213
1842	0.00383849
1854	0.00407113
1866	0.00639749
1878	0.0083749
1890	0.0103523
1902	0.0120971
1914	0.0133766
1926	0.0168661
1938	0.0186109
1950	0.0172151
1962	0.0129113
1974	0.0109339
1986	0.0105849
1998	0.0147724
2010	0.0151213
2022	0.0115155
2034	0.00651381
2046	0.00430377
2058	0.00209372
2070	0.000697908
2082	0.00174477
2094	0.0045364
2106	0.00535063
2118	0.00558326
2130	0.00663013
2142	0.00674644
2154	0.00616485
2166	0.00593222
2178	0.00663013
2190	0.00779331
2202	0.00825858
2214	0.00697908
2226	0.0070954
2238	0.00814226
2250	0.00953808
2262	0.00895649
2274	0.00953808
2286	0.0090728
2298	0.00825858
2310	0.00616485
2322	0.00604854
2334	0.00593222
2346	0.00523431
2358	0.00558326
2370	0.0032569
2382	0.00348954
2394	0.00395481
2406	0.0045364
2418	0.00395481
2430	0.00244268
2442	0.00279163
2454	0.00337322
2466	0.00430377
2478	0.00395481
2490	0.00360586
2502	0.00232636
2514	0.0012795
2526	0.000232636
2538	0
2550	0.000930544
2562	0.00186109
2574	0.0032569
2586	0.0045364
2598	0.00604854
2610	0.00849121
2622	0.0134929
2634	0.0286142
2646	0.0250084
2658	0.0341975
2670	0.0490862
2682	0.0510636
2694	0.0619975
2706	0.0621138
2718	0.0701398
2730	0.0944502
2742	0.113992
2754	0.138418
2766	0.101662
2778	0.0911933
2790	0.137372
2802	0.250316
2814	0.443986
2826	0.655103
2838	0.777004
2850	0.755485
2862	0.72501
2874	0.461085
2886	0.379778
2898	0.361865
2910	0.378731
2922	0.543205
2934	0.622185
2946	0.873664
2958	1.04547
2970	0.912864
2982	0.515172
2994	0.167265
3006	0.0195414
3018	0.00407113
3030	0.00383849
3042	0.00279163
3054	0.00314059
3066	0.00407113
3078	0.00593222
3090	0.00511799
3102	0.00732803
3114	0.00825858
3126	0.0070954
3138	0.00604854
3150	0.00535063
3162	0.00523431
3174	0.00569958
3186	0.0045364
3198	0.00546695
3210	0.00779331
3222	0.00686276
3234	0.00732803
3246	0.00628117
3258	0.00535063
3270	0.00569958
3282	0.00302427
3294	0.00139582
3306	0.000814226
3318	0.00221004
3330	0.00442008
3342	0.00116318
3354	0.002559
3366	0.00302427
3378	0.00314059
3390	0.00139582
3402	0.00302427
3414	0.000930544
3426	0.00186109
3438	0.00383849
3450	0.002559
3462	0.00139582
3474	0.00174477
3486	0.00197741
3498	0.00418745
3510	0.00244268
3522	0.00407113
3534	0.00302427
3546	0.00546695
3558	0.00546695
3570	0.00523431
3582	0.00465272
3594	0.00732803
3606	0.00465272
3618	0.00790962
3630	0.00918912
3642	0.00593222
3654	0.00523431
3666	0.00825858
3678	0.00651381
3690	0.0090728
3702	0.00767699
3714	0.0103523
3726	0.00767699
3738	0.0100033
3750	0.0070954
3762	0.00604854
3774	0.00732803
3786	0.00697908
3798	0.00779331
3810	0.00697908
3822	0.00593222
3834	0.00500167
3846	0.00511799
3858	0.00779331
3870	0.00546695
3882	0.00593222
3894	0.00628117
3906	0.00651381
3918	0.00860753
3930	0.00860753
3942	0.00965439
3954	0.015005
3966	0.00942176
