Infrared Spectrum: Propene
Formula: C 3 H 6
CAS: 115-07-1
State: gas
Origin: Sadtler Research Labs Under US-EPA Contract
1/CM	ABSORBANCE
450	0.0349103
462	0.0116601
474	0
486	0.00493044
498	0.00567818
510	0.00813172
522	0.0128752
534	0.0183431
546	0.0207032
558	0.0286947
570	0.0346533
582	0.0323399
594	0.0331344
606	0.0284376
618	0.0244419
630	0.0178758
642	0.00944027
654	0.0092066
666	0.00600532
678	0.00315454
690	0.00504727
702	0.00161232
714	0.0021965
726	0.00429953
738	0.00147212
750	0.00425279
762	0.00476687
774	0.00294424
786	0.00500054
798	0.00385555
810	0.00310781
822	0.00894956
834	0.0107956
846	0.0201424
858	0.0400978
870	0.0525056
882	0.0776953
894	0.0992163
906	0.0789104
918	0.124616
930	0.111951
942	0.119429
954	0.112816
966	0.0841212
978	0.0663155
990	0.102791
1002	0.0572491
1014	0.0447945
1026	0.032854
1038	0.0275497
1050	0.0168009
1062	0.0123845
1074	0.0108189
1086	0.00644929
1098	0.00539778
1110	0.00422943
1122	0.00317791
1134	0.00420606
1146	0.0048837
1158	0.00584175
1170	0.00665959
1182	0.00609879
1194	0.00619225
1206	0.00619225
1218	0.00511737
1230	0.00525757
1242	0.00535104
1254	0.00392566
1266	0.00373872
1278	0.00441636
1290	0.00462667
1302	0.00516411
1314	0.00598195
1326	0.00600532
1338	0.0072905
1350	0.00908976
1362	0.0139267
1374	0.0189506
1386	0.0247223
1398	0.0358683
1410	0.0320595
1422	0.0346533
1434	0.0473649
1446	0.0668764
1458	0.0362188
1470	0.05087
1482	0.0473415
1494	0.0334615
1506	0.0253532
1518	0.0188805
1530	0.0146978
1542	0.0143941
1554	0.0116601
1566	0.0107255
1578	0.0121508
1590	0.0113797
1602	0.0137865
1614	0.0236708
1626	0.046477
1638	0.0556836
1650	0.0614552
1662	0.0586044
1674	0.0450282
1686	0.0100712
1698	0.00509401
1710	0.00322465
1722	0.00313118
1734	0.00397239
1746	0.00280404
1758	0.0026872
1770	0.00324801
1782	0.00357515
1794	0.00773448
1806	0.0128051
1818	0.0137398
1830	0.0119172
1842	0.0177356
1854	0.00972067
1866	0.00640256
1878	0.00441636
1890	0.00320128
1902	0.00294424
1914	0.00264047
1926	0.00210303
1938	0.0024769
1950	0.00250027
1962	0.00306108
1974	0.00250027
1986	0.00310781
1998	0.00294424
2010	0.00357515
2022	0.00334148
2034	0.00341158
2046	0.00331811
2058	0.00303771
2070	0.00224323
2082	0.00203293
2094	0.00214976
2106	0.00182263
2118	0.00163569
2130	0.00140202
2142	0.00123845
2154	0.00147212
2166	0.00128518
2178	0.000981414
2190	0.00109825
2202	0.00165906
2214	0.00158896
2226	0.00186936
2238	0.0019862
2250	0.00184599
2262	0.00189273
2274	0.0020563
2286	0.00221986
2298	0.00296761
2310	0.00273394
2322	0.00135529
2334	0.00128518
2346	0.00046734
2358	0.00100478
2370	0.00102815
2382	0.00168242
2394	0.00142539
2406	0.00149549
2418	0.00149549
2430	0.00116835
2442	0.00114498
2454	0.00126182
2466	0.00135529
2478	0.00116835
2490	0.00140202
2502	0.00133192
2514	0.00119172
2526	0.00170579
2538	0.00193946
2550	0.00165906
2562	0.00217313
2574	0.00168242
2586	0.00165906
2598	0.00126182
2610	0.00121508
2622	0.000771111
2634	0.00109825
2646	0.000677643
2658	0.000584175
2670	0.000887946
2682	0.000817845
2694	0.00109825
2706	0.00170579
2718	0.00299098
2730	0.00373872
2742	0.00415933
2754	0.00605205
2766	0.00462667
2778	0.00490707
2790	0.00560808
2802	0.00785131
2814	0.00911313
2826	0.00967394
2838	0.0167541
2850	0.0315221
2862	0.0344663
2874	0.0500287
2886	0.0704515
2898	0.0747744
2910	0.103633
2922	0.123611
2934	0.125574
2946	0.148544
2958	0.17357
2970	0.13887
2982	0.14095
2994	0.135155
3006	0.137608
3018	0.104217
3030	0.0873692
3042	0.0812003
3054	0.0803825
3066	0.0903135
3078	0.0931642
3090	0.0920426
3102	0.0951037
3114	0.0766905
3126	0.0418737
3138	0.0254467
3150	0.0154456
3162	0.0107255
3174	0.00572491
3186	0.00362188
3198	0.0024068
3210	0.00200956
3222	0.00163569
3234	0.00128518
3246	0.00133192
3258	0.00112162
3270	0.00116835
3282	0.00114498
3294	0.000841212
3306	0.00105151
3318	0.00109825
3330	0.000724377
3342	0.00107488
3354	0.000958047
3366	0.00191609
3378	0.00158896
3390	0.00154222
3402	0.00147212
3414	0.00214976
3426	0.00156559
3438	0.00193946
3450	0.00137865
3462	0.00217313
3474	0.00243017
3486	0.0019862
3498	0.00224323
3510	0.00324801
3522	0.0024068
3534	0.00273394
3546	0.0022666
3558	0.00121508
3570	0.00119172
3582	0.000654276
3594	0.00156559
3606	0.000584175
3618	0.000817845
3630	0.00130855
3642	0.0024068
3654	0.00170579
3666	0.00163569
3678	0.00217313
3690	0.00301434
3702	0.000794478
3714	0.00182263
3726	0.00177589
3738	0.00182263
3750	0.00142539
3762	0.00135529
3774	0.00170579
3786	0.00140202
3798	0.00170579
3810	0.00151885
3822	0.00191609
3834	0.00193946
3846	0.00172916
3858	0.00154222
3870	0.0021264
3882	0.0024769
3894	0.00341158
3906	0.00317791
3918	0.000724377
3930	0.00231333
3942	0.0022666
3954	0.00191609
3966	0.00329475
