Infrared Spectrum: 2-Pentyn-1-ol
Formula: C 5 H 8 O
CAS: 6261-22-9
State: gas
Instrument: HP-GC/MS/IRD
Origin: NIST Mass Spectrometry Data Center
1/CM	ABSORBANCE
550	0.000986
562	0.0003468
574	0.0003196
586	0.0002108
598	0.0002601
610	0.0002618
622	3.23e-05
634	6.46e-05
646	0.0001428
658	0.000306
670	0.0001326
682	0.0002193
694	0.0002397
706	0.0003689
718	0.000561
730	0.0006494
742	0.0006562
754	0.0005372
766	0.0004182
778	0.0002618
790	0.0002193
802	0.0001564
814	0.0001275
826	0.0001326
838	0.0001496
850	0.0002312
862	0.0002193
874	0.0002856
886	0.0003638
898	0.0005797
910	0.0008415
922	0.001309
934	0.0019499
946	0.0024752
958	0.0032657
970	0.0047498
982	0.0070346
994	0.0111673
1006	0.0164747
1018	0.0157284
1030	0.0099076
1042	0.0055845
1054	0.0033779
1066	0.0021267
1078	0.0015742
1090	0.0014008
1102	0.0014484
1114	0.0016813
1126	0.0033184
1138	0.0047617
1150	0.0038658
1162	0.0016235
1174	0.0010761
1186	0.0010081
1198	0.0010982
1210	0.0013141
1222	0.0014875
1234	0.0016541
1246	0.0017816
1258	0.0019142
1270	0.0020128
1282	0.0021097
1294	0.002363
1306	0.0038896
1318	0.0058514
1330	0.0052479
1342	0.0032521
1354	0.0041939
1366	0.0061336
1378	0.0081311
1390	0.0090661
1402	0.0075021
1414	0.004573
1426	0.002856
1438	0.0021692
1450	0.0019431
1462	0.0017391
1474	0.0013583
1486	0.0010115
1498	0.0006766
1510	0.0004556
1522	0.0003281
1534	0.0002584
1546	0.000204
1558	0.0002363
1570	0.0002142
1582	0.0002278
1594	0.0001819
1606	0.0001666
1618	0.0001496
1630	0.0001207
1642	9.52e-05
1654	0.0001207
1666	9.52e-05
1678	0.0001445
1690	0.0001071
1702	0.0001054
1714	7.99e-05
1726	5.95e-05
1738	8.67e-05
1750	5.1e-06
1762	2.55e-05
1774	6.12e-05
1786	4.25e-05
1798	3.06e-05
1810	5.95e-05
1822	3.57e-05
1834	4.93e-05
1846	4.08e-05
1858	6.8e-05
1870	8.33e-05
1882	7.65e-05
1894	4.76e-05
1906	9.01e-05
1918	7.14e-05
1930	8.67e-05
1942	0.0001156
1954	0.0001377
1966	0.0001598
1978	0.0001819
1990	0.0001819
2002	0.0002397
2014	0.0002448
2026	0.0002244
2038	0.0001921
2050	0.0001479
2062	9.01e-05
2074	7.48e-05
2086	6.97e-05
2098	5.1e-05
2110	4.76e-05
2122	6.46e-05
2134	7.31e-05
2146	7.14e-05
2158	0.0001241
2170	0.0001819
2182	0.0002992
2194	0.0005406
2206	0.0008398
2218	0.0012172
2230	0.001326
2242	0.000901
2254	0.0004505
2266	0.000459
2278	0.0006511
2290	0.000765
2302	0.0005763
2314	0.0001887
2326	0.0001275
2338	0.0001292
2350	8.84e-05
2362	0.0001224
2374	0.000119
2386	9.86e-05
2398	0.0001207
2410	8.16e-05
2422	9.01e-05
2434	6.63e-05
2446	9.52e-05
2458	5.1e-05
2470	4.25e-05
2482	1.7e-05
2494	5.78e-05
2506	6.97e-05
2518	7.99e-05
2530	5.61e-05
2542	9.35e-05
2554	4.08e-05
2566	5.61e-05
2578	6.97e-05
2590	0.000102
2602	0.0001394
2614	0.0001496
2626	0.0002074
2638	0.0001598
2650	0.0001105
2662	8.84e-05
2674	0.0001003
2686	0.0001326
2698	0.0001479
2710	0.0002091
2722	0.000238
2734	0.0003111
2746	0.0003621
2758	0.0004709
2770	0.0004488
2782	0.0005151
2794	0.0005916
2806	0.0007242
2818	0.0009401
2830	0.0013821
2842	0.002057
2854	0.0031025
2866	0.0042585
2878	0.0058956
2890	0.0072199
2902	0.0077248
2914	0.0076925
2926	0.0083521
2938	0.0100283
2950	0.0101507
2962	0.0086462
2974	0.0088213
2986	0.0091936
2998	0.0064736
3010	0.0032895
3022	0.0019788
3034	0.0010965
3046	0.0006936
3058	0.0004471
3070	0.0004063
3082	0.0003536
3094	0.0003502
3106	0.0003383
3118	0.0002941
3130	0.0002856
3142	0.0002414
3154	0.0001615
3166	0.0002023
3178	0.00017
3190	0.0001445
3202	0.0001088
3214	7.99e-05
3226	5.1e-05
3238	6.63e-05
3250	1.53e-05
3262	6.97e-05
3274	3.91e-05
3286	5.61e-05
3298	6.46e-05
3310	4.25e-05
3322	6.12e-05
3334	3.06e-05
3346	0.000102
3358	0.0001122
3370	5.44e-05
3382	0.0001088
3394	8.33e-05
3406	0.0001156
3418	0.0001547
3430	0.0001088
3442	0.0001513
3454	0.0001258
3466	0.0001411
3478	0.0001445
3490	0.0001853
3502	0.0001326
3514	0.0001496
3526	0.0002482
3538	0.0002686
3550	0.000289
3562	0.0002465
3574	0.0002431
3586	0.0002295
3598	0.0003774
3610	0.0006341
3622	0.0009809
3634	0.0013566
3646	0.001921
3658	0.0021862
3670	0.002278
3682	0.0016813
3694	0.0010642
3706	0.0006613
3718	0.0003961
3730	0.0002873
3742	0.0002941
3754	0.0002601
3766	0.0002958
3778	0.0002346
3790	0.0002465
3802	0.0002193
3814	0.0002686
3826	0.0001853
3838	0.0001955
