Infrared Spectrum: Cyanoacetylene
Formula: C 3 H N
CAS: 1070-71-9
State: gas
Instrument: HP-GC/MS/IRD
Origin: NIST Mass Spectrometry Data Center
1/CM	ABSORBANCE
550	0.0010101
562	0.0009373
574	0.0008918
586	0.0008463
598	0.0009373
610	0.0011466
622	0.0029029
634	0.0089271
646	0.0253253
658	0.0414141
670	0.0648739
682	0.0295932
694	0.010192
706	0.0054873
718	0.0029848
730	0.0035035
742	0.0023205
754	0.0011284
766	0.0005733
778	0.0004095
790	0.0004459
802	0.0003003
814	0.0002366
826	0.0002093
838	0.0001911
850	0.0002912
862	0.0003822
874	0.000455
886	0.0003003
898	0.000273
910	0.0003185
922	0.0001456
934	0.0002093
946	0.0002184
958	0.0001638
970	6.37e-05
982	0.0001638
994	0.0002639
1006	0.0002912
1018	0.0003367
1030	0.0004914
1042	0.0004914
1054	0.000273
1066	0.0004459
1078	0.0004914
1090	0.0003185
1102	0.0003276
1114	0.0004004
1126	0.000364
1138	0.0004823
1150	0.0004368
1162	0.000455
1174	0.0004368
1186	0.0005005
1198	0.0005551
1210	0.000546
1222	0.0005642
1234	0.0005005
1246	0.000546
1258	0.0005824
1270	0.0014924
1282	0.0056602
1294	0.0136591
1306	0.013923
1318	0.0138138
1330	0.0110474
1342	0.0031486
1354	0.000637
1366	0.0002912
1378	0.000182
1390	0.0001911
1402	0.0001456
1414	0.0001183
1426	0.0001092
1438	5.46e-05
1450	6.37e-05
1462	1.82e-05
1474	0
1486	2.73e-05
1498	5.46e-05
1510	5.46e-05
1522	0.0001001
1534	0.0002002
1546	0.0001183
1558	0.0001183
1570	0.0001365
1582	7.28e-05
1594	0.0001092
1606	7.28e-05
1618	5.46e-05
1630	7.28e-05
1642	0.0001547
1654	0.0001092
1666	0.0001092
1678	0.0001365
1690	0.000182
1702	0.0001092
1714	0.0001547
1726	0.0001638
1738	0.0001547
1750	0.0001365
1762	0.0001456
1774	0.0001365
1786	0.0001183
1798	0.0001001
1810	0.0001729
1822	0.0001183
1834	0.0001547
1846	0.0001547
1858	0.0001638
1870	0.0001183
1882	0.0001183
1894	0.0001547
1906	0.0001001
1918	0.0001001
1930	0.0001092
1942	0.0001001
1954	0.0001092
1966	0.0001183
1978	0.0001365
1990	0.0001729
2002	0.0001729
2014	0.0001638
2026	0.0003367
2038	0.0006006
2050	0.0009919
2062	0.0012012
2074	0.0011375
2086	0.0012194
2098	0.0004186
2110	0.0001365
2122	0.0001183
2134	0.0001001
2146	9.1e-05
2158	7.28e-05
2170	9.1e-05
2182	0.0001001
2194	0.0001911
2206	0.0002912
2218	0.000637
2230	0.0017381
2242	0.0039221
2254	0.0054236
2266	0.0051688
2278	0.0056966
2290	0.0019747
2302	0.0002912
2314	0.0002548
2326	0.000273
2338	0.0002457
2350	0.0002639
2362	0.0003458
2374	0.0002366
2386	0.0001183
2398	9.1e-05
2410	0.0001638
2422	9.1e-05
2434	0.0001638
2446	0.0001456
2458	0.0002093
2470	0.0004004
2482	0.0005096
2494	0.0004095
2506	0.0002184
2518	0.0001456
2530	0.0001365
2542	0.0001547
2554	0.0002639
2566	0.0002821
2578	0.0002093
2590	0.0002275
2602	0.0001729
2614	0.0002366
2626	0.0002639
2638	0.0004186
2650	0.0005551
2662	0.0009191
2674	0.0003367
2686	0.0002093
2698	0.000182
2710	0.000182
2722	0.0002548
2734	0.0002912
2746	0.0003003
2758	0.0003549
2770	0.0002821
2782	0.0001456
2794	6.37e-05
2806	9.1e-05
2818	0.0001638
2830	0.0001183
2842	6.37e-05
2854	8.19e-05
2866	4.55e-05
2878	0.0001183
2890	0.0001729
2902	0.0001092
2914	0.0001183
2926	7.28e-05
2938	0.0001365
2950	9.1e-05
2962	0.0001001
2974	3.64e-05
2986	8.19e-05
2998	9.1e-05
3010	0.0001092
3022	0.000182
3034	0.0001092
3046	0.0003094
3058	0.0002821
3070	0.0002093
3082	0.0004186
3094	0.000455
3106	0.0004732
3118	0.0004641
3130	0.0002912
3142	0.0003276
3154	0.0002639
3166	0.0002002
3178	0.0001638
3190	0.0001911
3202	0.0002275
3214	0.0002275
3226	0.0003913
3238	0.0007371
3250	0.0014287
3262	0.0029575
3274	0.0061243
3286	0.011921
3298	0.0231959
3310	0.0391573
3322	0.0298571
3334	0.0369824
3346	0.0192101
3358	0.0032669
3370	0.001274
3382	0.0009919
3394	0.0007007
3406	0.0003367
3418	0.0002457
3430	0.0001911
3442	0.0002093
3454	0.0001911
3466	0.0002002
3478	0.0003276
3490	0.0002184
3502	0.0002002
3514	0.0003913
3526	0.0005369
3538	0.0005824
3550	0.0005642
3562	0.0003367
3574	0.0002366
3586	0.0003458
3598	0.0002548
3610	0.0002093
3622	0.0001547
3634	0.0001911
3646	0.000182
3658	0.0001911
3670	0.0002275
3682	0.0002002
3694	0.0001456
3706	0.0001547
3718	0.0002093
3730	0.0002548
3742	0.0001729
3754	0.0002184
3766	0.000182
3778	0.0001911
3790	0.0001365
3802	0.0001911
3814	0.0001001
3826	7.28e-05
3838	0.0002275
