Infrared Spectrum: Butane, 2-chloro-2-methyl-
Formula: C 5 H 11 Cl
CAS: 594-36-5
State: gas
Origin: Sadtler Research Labs Under US-EPA Contract
1/CM	ABSORBANCE
450	0
462	0.0132053
474	0.0217361
486	0.00829713
498	0.0193989
510	0.0212687
522	0.0125041
534	0.0232553
546	0.0523537
558	0.114524
570	0.151335
582	0.0892818
594	0.0289815
606	0.0287478
618	0.0454589
630	0.0434723
642	0.0167111
654	0.0113355
666	0.0154257
678	0.0111018
690	0.0108681
702	0.0119198
714	0.013439
726	0.0175292
738	0.035292
750	0.0653253
762	0.0835556
774	0.0843736
786	0.0989813
798	0.115576
810	0.102955
822	0.0503671
834	0.0163605
846	0.0115692
858	0.0146076
870	0.0174123
882	0.0195158
894	0.029449
906	0.0453421
918	0.0542235
930	0.0402002
942	0.0238396
954	0.020217
966	0.0167111
978	0.0167111
990	0.02606
1002	0.0435892
1014	0.0545741
1026	0.0423037
1038	0.0301501
1050	0.0481467
1062	0.0607677
1074	0.0418362
1086	0.0296827
1098	0.0366944
1110	0.0704672
1122	0.145492
1134	0.19621
1146	0.208831
1158	0.226944
1170	0.148998
1182	0.0931382
1194	0.0919696
1206	0.0653253
1218	0.0682468
1230	0.0785306
1242	0.0542235
1254	0.034474
1266	0.0349414
1278	0.0570282
1290	0.0799329
1302	0.0627544
1314	0.033656
1326	0.0300333
1338	0.0383304
1350	0.0528212
1362	0.126093
1374	0.26434
1386	0.267845
1398	0.155659
1410	0.0599497
1422	0.0411351
1434	0.0696492
1446	0.151919
1458	0.23641
1470	0.244941
1482	0.14818
1494	0.0527043
1506	0.0223205
1518	0.0164774
1530	0.013439
1542	0.0122704
1554	0.014257
1566	0.0140233
1578	0.0143739
1590	0.0122704
1602	0.0102838
1614	0.0095826
1626	0.00993319
1638	0.0107512
1650	0.0115692
1662	0.0112187
1674	0.0105175
1686	0.0102838
1698	0.0101669
1710	0.0165943
1722	0.0246577
1734	0.0259431
1746	0.0290984
1758	0.0223205
1770	0.0155425
1782	0.0114524
1794	0.0123873
1806	0.011803
1818	0.00969946
1830	0.00876458
1842	0.00666108
1854	0.00794655
1866	0.00677794
1878	0.00631049
1890	0.00666108
1902	0.00595991
1914	0.00514188
1926	0.00584305
1938	0.00572619
1950	0.00572619
1962	0.00572619
1974	0.00514188
1986	0.00584305
1998	0.00631049
2010	0.00607677
2022	0.00607677
2034	0.00631049
2046	0.00584305
2058	0.00607677
2070	0.00642736
2082	0.00642736
2094	0.00666108
2106	0.0068948
2118	0.00712852
2130	0.00782969
2142	0.0074791
2154	0.00771283
2166	0.00736224
2178	0.00654422
2190	0.00654422
2202	0.00654422
2214	0.00631049
2226	0.00631049
2238	0.00666108
2250	0.00631049
2262	0.00619363
2274	0.00677794
2286	0.00736224
2298	0.00736224
2310	0.00642736
2322	0.00514188
2334	0.00514188
2346	0.00560933
2358	0.00514188
2370	0.00864771
2382	0.00911516
2394	0.00911516
2406	0.00876458
2418	0.00782969
2430	0.00888144
2442	0.0095826
2454	0.00888144
2466	0.00782969
2478	0.00677794
2490	0.00677794
2502	0.00701166
2514	0.00654422
2526	0.00712852
2538	0.00712852
2550	0.00736224
2562	0.00841399
2574	0.0095826
2586	0.00946574
2598	0.01005
2610	0.0105175
2622	0.0111018
2634	0.0111018
2646	0.0114524
2658	0.0121535
2670	0.014257
2682	0.0147245
2694	0.0130884
2706	0.0136727
2718	0.0167111
2730	0.0231385
2742	0.0257094
2754	0.0264106
2766	0.0233722
2778	0.0240734
2790	0.0251251
2802	0.0299164
2814	0.035292
2826	0.0438229
2838	0.0628712
2850	0.110784
2862	0.184173
2874	0.258964
2886	0.357478
2898	0.403872
2910	0.425257
2922	0.493504
2934	0.628946
2946	0.688545
2958	0.635256
2970	0.858811
2982	1.16861
2994	0.867576
3006	0.36893
3018	0.122704
3030	0.061352
3042	0.0477961
3054	0.0387979
3066	0.0349414
3078	0.03611
3090	0.0351752
3102	0.0296827
3114	0.0225542
3126	0.018464
3138	0.016828
3150	0.016828
3162	0.0179966
3174	0.0190483
3186	0.0188146
3198	0.0178797
3210	0.017646
3222	0.017646
3234	0.0165943
3246	0.0153088
3258	0.0136727
3270	0.0125041
3282	0.0119198
3294	0.00993319
3306	0.01005
3318	0.00993319
3330	0.0102838
3342	0.00969946
3354	0.00923202
3366	0.00969946
3378	0.00934888
3390	0.00946574
3402	0.00853085
3414	0.00759597
3426	0.0074791
3438	0.00701166
3450	0.00759597
3462	0.00771283
3474	0.00654422
3486	0.00712852
3498	0.00642736
3510	0.00584305
3522	0.00677794
3534	0.00595991
3546	0.0074791
3558	0.00619363
3570	0.00923202
3582	0.00619363
3594	0.00876458
3606	0.00619363
3618	0.00818027
3630	0.00934888
3642	0.00666108
3654	0.00829713
3666	0.00782969
3678	0.00794655
3690	0.00724538
3702	0.00794655
3714	0.00934888
3726	0.00993319
3738	0.00794655
3750	0.00911516
3762	0.00911516
3774	0.0068948
3786	0.0068948
3798	0.00560933
3810	0.00946574
3822	0.00888144
3834	0.00701166
3846	0.00771283
3858	0.00969946
3870	0.0074791
3882	0.0095826
3894	0.00888144
3906	0.0104006
3918	0.00876458
3930	0.0108681
3942	0.00923202
3954	0.00969946
3966	0.0116861
