Infrared Spectrum: 1H-Pyrrole, 1-methyl-
Formula: C 5 H 7 N
CAS: 96-54-8
State: gas
Origin: Sadtler Research Labs Under US-EPA Contract
1/CM	ABSORBANCE
450	0.0119706
462	0.00894003
474	0.00894003
486	0.00333357
498	0.00621257
510	0.00545494
522	0.00606104
534	0.00727325
546	0.00924309
558	0.0125767
570	0.0239411
582	0.0551555
594	0.0637924
606	0.130918
618	0.0698535
630	0.0433364
642	0.020153
654	0.0404574
666	0.0624287
678	0.134555
690	0.341388
702	0.620196
714	0.929157
726	0.683231
738	0.595952
750	0.197135
762	0.0325781
774	0.0221228
786	0.0221228
798	0.0206075
810	0.0157587
822	0.0110614
834	0.0140919
846	0.0133343
858	0.011516
870	0.0174255
882	0.0274262
894	0.029396
906	0.0251533
918	0.0137889
930	0.00833393
942	0.0177285
954	0.0827332
966	0.0950068
978	0.101522
990	0.0439425
1002	0.0210621
1014	0.0301537
1026	0.0515188
1038	0.0647016
1050	0.0915217
1062	0.124251
1074	0.257897
1086	0.317598
1098	0.267746
1110	0.155617
1122	0.0225774
1134	0.0154557
1146	0.0193953
1158	0.0156072
1170	0.0133343
1182	0.017577
1194	0.0181831
1206	0.0200014
1218	0.023032
1230	0.0189407
1242	0.0250018
1254	0.0386391
1266	0.10622
1278	0.340176
1290	0.513522
1302	0.437759
1314	0.207591
1326	0.0542463
1338	0.0415181
1350	0.0412151
1362	0.0246987
1374	0.0404574
1386	0.0951583
1398	0.137889
1410	0.239866
1422	0.227137
1434	0.187135
1446	0.0856122
1458	0.0522765
1470	0.0640955
1482	0.121978
1494	0.307901
1506	0.401847
1518	0.502612
1530	0.383361
1542	0.342752
1554	0.171679
1566	0.0542463
1578	0.0257594
1590	0.0187892
1602	0.0159102
1614	0.0145465
1626	0.0109099
1638	0.0134858
1650	0.0154557
1662	0.0357601
1674	0.0246987
1686	0.0237896
1698	0.0209106
1710	0.0360632
1722	0.038033
1734	0.0234865
1746	0.0168194
1758	0.0107583
1770	0.00303052
1782	0.00303052
1794	0.00166679
1806	0.00454578
1818	0.00469731
1830	0.00196984
1842	0.00363662
1854	0.00636409
1866	0.00424273
1878	0.00530341
1890	0.00287899
1902	0.00439425
1914	0.00439425
1926	0.00621257
1938	0.00939461
1950	0.0110614
1962	0.00878851
1974	0.00545494
1986	0.00439425
1998	0.00424273
2010	0.00439425
2022	0.0034851
2034	0.00378815
2046	0.00378815
2058	0.00333357
2070	0.0040912
2082	0.00560646
2094	0.00530341
2106	0.00530341
2118	0.00484883
2130	0.00363662
2142	0.00424273
2154	0.00484883
2166	0.00666714
2178	0.00772783
2190	0.00666714
2202	0.00590951
2214	0.00545494
2226	0.00727325
2238	0.0081824
2250	0.00878851
2262	0.00712172
2274	0.00575799
2286	0.00303052
2298	0.00166679
2310	0.000454578
2322	0.000909156
2334	0.00303052
2346	0.00651562
2358	0.00196984
2370	0.00924309
2382	0.0075763
2394	0.00606104
2406	0.00651562
2418	0.00803088
2430	0.00848546
2442	0.0103038
2454	0.0119706
2466	0.0125767
2478	0.0122736
2490	0.0109099
2502	0.00833393
2514	0.00606104
2526	0.00590951
2538	0.0069702
2550	0.00984919
2562	0.0106068
2574	0.00984919
2586	0.00863698
2598	0.00742477
2610	0.00545494
2622	0.00484883
2634	0.00424273
2646	0.00424273
2658	0.00515188
2670	0.00742477
2682	0.00848546
2694	0.00894003
2706	0.0104553
2718	0.0168194
2730	0.026214
2742	0.0313659
2754	0.0306083
2766	0.0234865
2778	0.0260625
2790	0.029093
2802	0.0510643
2814	0.0762176
2826	0.0760661
2838	0.0459124
2850	0.0363662
2862	0.0515188
2874	0.0889458
2886	0.158799
2898	0.226986
2910	0.251533
2922	0.245321
2934	0.291536
2946	0.362147
2958	0.360026
2970	0.264716
2982	0.138949
2994	0.0890973
3006	0.0845515
3018	0.0871274
3030	0.0925824
3042	0.0754599
3054	0.052731
3066	0.0327296
3078	0.0250018
3090	0.029396
3102	0.0681867
3114	0.103644
3126	0.130767
3138	0.112584
3150	0.0521249
3162	0.0157587
3174	0.00378815
3186	0.00318205
3198	0.00272747
3210	0.00303052
3222	0.00318205
3234	0.00287899
3246	0.00212136
3258	0.00287899
3270	0.00378815
3282	0.00378815
3294	0.00287899
3306	0.00227289
3318	0.0034851
3330	0.00272747
3342	0.00303052
3354	0.00257594
3366	0.00363662
3378	0.00318205
3390	0.00242442
3402	0.00075763
3414	0.00196984
3426	0.000151526
3438	0.00181831
3450	0.00515188
3462	0.00378815
3474	0.00333357
3486	0.00257594
3498	0.00257594
3510	0.00196984
3522	0.00106068
3534	0.00257594
3546	0.00227289
3558	0.00333357
3570	0.00166679
3582	0.00363662
3594	0.00257594
3606	0.00393968
3618	0.0040912
3630	0.00257594
3642	0.0040912
3654	0.00257594
3666	0.00469731
3678	0.0034851
3690	0.00257594
3702	0.00257594
3714	0.00424273
3726	0.00272747
3738	0.00242442
3750	0.00560646
3762	0.00227289
3774	0.00575799
3786	0.00424273
3798	0.0034851
3810	0.00484883
3822	0.00560646
3834	0.00257594
3846	0.00439425
3858	0.00621257
3870	0.00575799
3882	0.00742477
3894	0.00393968
3906	0.00363662
3918	0.00575799
3930	0.00484883
3942	0.00378815
3954	0.00560646
3966	0
