Infrared Spectrum: Chloroform
Formula: C H Cl3
CAS: 67-66-3
State: GAS (50 mmHg, N2 ADDED, TOTAL PRESSURE 600 mmHg)
Class: COBLENTZ
Instrument: DOW KBr FOREPRISM-GRATING
Instrument parameters: GRATING CHANGED AT 5.0, 7.5, 15.0 MICRON
Sampling: TRANSMISSION
Path length: 5 CM
Resolution: 2
Origin: DOW CHEMICAL COMPANY
1/CM	TRANSMITTANCE
469	0.8168
478	0.8158
487	0.8138
496	0.8105
505	0.8058
514	0.8043
523	0.8089
532	0.8145
541	0.8201
550	0.8254
559	0.8297
568	0.8335
577	0.8369
586	0.8388
595	0.8396
604	0.838
613	0.8333
622	0.8315
631	0.8336
640	0.8399
649	0.8347
658	0.8194
667	0.7694
676	0.6174
685	0.6658
694	0.8167
703	0.8671
712	0.8639
721	0.8546
730	0.8435
739	0.7803
748	0.5263
757	0.044
766	0.0039
775	0.0072
784	0.0435
793	0.4771
802	0.8228
811	0.8596
820	0.8669
829	0.8676
838	0.8628
847	0.8538
856	0.8429
865	0.8522
874	0.8561
883	0.8571
892	0.8557
901	0.8526
910	0.8461
919	0.8383
928	0.8306
937	0.8426
946	0.8504
955	0.8609
964	0.8655
973	0.8675
982	0.868
991	0.8681
1000	0.8662
1009	0.8623
1018	0.8555
1027	0.8477
1036	0.8442
1045	0.8488
1054	0.8484
1063	0.8474
1072	0.8456
1081	0.8495
1090	0.8609
1099	0.868
1108	0.8698
1117	0.8703
1126	0.8695
1135	0.8649
1144	0.8665
1153	0.8719
1162	0.8709
1171	0.8687
1180	0.863
1189	0.8542
1198	0.8199
1207	0.6603
1216	0.0795
1225	0.1862
1234	0.6511
1243	0.8036
1252	0.8481
1261	0.8539
1270	0.8547
1279	0.8548
1288	0.8546
1297	0.8551
1306	0.8557
1315	0.8564
1324	0.8572
1333	0.8579
1342	0.8561
1351	0.8496
1360	0.8443
1369	0.8439
1378	0.8437
1387	0.8439
1396	0.8492
1405	0.8479
1414	0.8464
1423	0.8452
1432	0.8292
1441	0.8024
1450	0.8107
1459	0.8448
1468	0.8459
1477	0.8476
1486	0.8512
1495	0.8555
1504	0.8594
1513	0.8518
1522	0.8419
1531	0.8308
1540	0.8221
1549	0.8227
1558	0.8363
1567	0.8511
1576	0.8617
1585	0.866
1594	0.8667
1603	0.8667
1612	0.8658
1621	0.8651
1630	0.8648
1639	0.8645
1648	0.8641
1657	0.8637
1666	0.8634
1675	0.8624
1684	0.8609
1693	0.8588
1702	0.855
1711	0.8516
1720	0.8512
1729	0.8508
1738	0.8521
1747	0.8548
1756	0.8575
1765	0.8577
1774	0.8591
1783	0.8634
1792	0.8656
1801	0.868
1810	0.8705
1819	0.8717
1828	0.8728
1837	0.8737
1846	0.8746
1855	0.8753
1864	0.8753
1873	0.8754
1882	0.8755
1891	0.875
1900	0.8743
1909	0.8735
1918	0.8728
1927	0.8722
1936	0.8721
1945	0.8719
1954	0.8718
1963	0.8718
1972	0.8725
1981	0.8731
1990	0.8737
1999	0.874
2008	0.8741
2017	0.8742
2026	0.8744
2035	0.8746
2044	0.8748
2053	0.875
2062	0.8753
2071	0.8755
2080	0.8757
2089	0.8757
2098	0.8757
2107	0.8758
2116	0.8758
2125	0.8758
2134	0.8758
2143	0.8758
2152	0.8757
2161	0.8756
2170	0.8756
2179	0.8753
2188	0.875
2197	0.8747
2206	0.8745
2215	0.8742
2224	0.8744
2233	0.8746
2242	0.8749
2251	0.8752
2260	0.8755
2269	0.8754
2278	0.8753
2287	0.8752
2296	0.8754
2305	0.876
2314	0.8766
2323	0.8771
2332	0.8776
2341	0.8766
2350	0.8758
2359	0.8761
2368	0.8796
2377	0.8788
2386	0.877
2395	0.8746
2404	0.8698
2413	0.8433
2422	0.861
2431	0.8652
2440	0.8679
2449	0.8703
2458	0.8733
2467	0.876
2476	0.8793
2485	0.8825
2494	0.8825
2503	0.8822
2512	0.882
2521	0.8818
2530	0.8816
2539	0.8813
2548	0.8809
2557	0.8805
2566	0.8801
2575	0.8796
2584	0.8792
2593	0.8786
2602	0.8781
2611	0.8775
2620	0.877
2629	0.8765
2638	0.8762
2647	0.8757
2656	0.8754
2665	0.8751
2674	0.8749
2683	0.8744
2692	0.8739
2701	0.8733
2710	0.8727
2719	0.872
2728	0.8713
2737	0.8706
2746	0.8698
2755	0.8686
2764	0.8677
2773	0.8673
2782	0.867
2791	0.867
2800	0.8669
2809	0.8667
2818	0.8659
2827	0.8649
2836	0.8632
2845	0.8605
2854	0.8578
2863	0.8549
2872	0.8516
2881	0.8482
2890	0.8449
2899	0.8417
2908	0.8399
2917	0.8371
2926	0.8322
2935	0.8324
2944	0.8363
2953	0.8368
2962	0.8377
2971	0.8433
2980	0.8469
2989	0.85
2998	0.8533
3007	0.8556
3016	0.8559
3025	0.8517
3034	0.8453
3043	0.8585
3052	0.8663
3061	0.8686
3070	0.8699
3079	0.871
3088	0.8717
3097	0.8721
3106	0.8728
3115	0.8733
3124	0.8736
3133	0.874
3142	0.8743
3151	0.8747
3160	0.8752
3169	0.8756
3178	0.8761
3187	0.8765
3196	0.877
3205	0.8774
3214	0.8777
3223	0.8779
3232	0.8782
3241	0.8787
3250	0.8792
3259	0.8797
3268	0.8802
3277	0.8807
3286	0.8812
3295	0.8814
3304	0.8813
3313	0.8813
3322	0.8812
3331	0.8812
3340	0.8812
3349	0.8812
3358	0.8812
3367	0.8813
3376	0.8813
3385	0.8813
3394	0.8814
3403	0.8815
3412	0.8818
3421	0.882
3430	0.8823
3439	0.883
3448	0.8837
3457	0.8844
3466	0.8852
3475	0.8859
3484	0.8858
3493	0.8858
3502	0.8858
3511	0.8857
3520	0.8857
3529	0.8852
3538	0.8847
3547	0.8841
3556	0.8837
3565	0.8833
3574	0.8829
3583	0.8825
3592	0.8821
3601	0.8816
3610	0.8814
3619	0.8806
3628	0.8794
3637	0.8777
3646	0.8757
3655	0.874
3664	0.8729
3673	0.872
3682	0.8714
3691	0.8739
3700	0.8801
3709	0.883
3718	0.8829
3727	0.8828
3736	0.8828
3745	0.8825
3754	0.8822
3763	0.8818
3772	0.8818
3781	0.8811
3790	0.8799
3799	0.8788
