Infrared Spectrum: Chloroform
Formula: C H Cl 3
CAS: 67-66-3
State: gas
Origin: Sadtler Research Labs Under US-EPA Contract
1/CM	ABSORBANCE
450	0
462	0.0128182
474	0.0182018
486	0.01128
498	0.0194836
510	0.020509
522	0.0158945
534	0.0148691
546	0.0156381
558	0.0130745
570	0.0166636
582	0.00769089
594	0.00999816
606	0.0166636
618	0.0217909
630	0.0194836
642	0.0199963
654	0.0194836
666	0.0312763
678	0.0492217
690	0.0835743
702	0.0217909
714	0.0210218
726	0.0392235
738	0.147921
750	0.63014
762	1.92272
774	2.34495
786	0.569639
798	0.0789598
810	0.020509
822	0.0156381
834	0.0143563
846	0.0184581
858	0.0256363
870	0.0179454
882	0.0148691
894	0.0156381
906	0.0187145
918	0.0223036
930	0.0256363
942	0.0207654
954	0.0158945
966	0.0141
978	0.0133309
990	0.0141
1002	0.0146127
1014	0.01692
1026	0.0184581
1038	0.0199963
1050	0.0187145
1062	0.0182018
1074	0.0174327
1086	0.0161509
1098	0.0143563
1110	0.0135872
1122	0.0133309
1134	0.0125618
1146	0.0120491
1158	0.0128182
1170	0.0143563
1182	0.020509
1194	0.0379417
1206	0.137154
1218	0.657571
1230	0.190734
1242	0.0369163
1254	0.0161509
1266	0.0130745
1278	0.0117927
1290	0.0115363
1302	0.0115363
1314	0.0117927
1326	0.0120491
1338	0.0115363
1350	0.0117927
1362	0.0115363
1374	0.0120491
1386	0.0128182
1398	0.0133309
1410	0.0146127
1422	0.0179454
1434	0.0230727
1446	0.0225599
1458	0.0133309
1470	0.0135872
1482	0.0141
1494	0.0135872
1506	0.0143563
1518	0.0171763
1530	0.01974
1542	0.0220472
1554	0.0171763
1566	0.0146127
1578	0.01128
1590	0.0102545
1602	0.00948543
1614	0.00922907
1626	0.00922907
1638	0.00948543
1650	0.00948543
1662	0.00897271
1674	0.00948543
1686	0.00948543
1698	0.00897271
1710	0.00922907
1722	0.00922907
1734	0.00897271
1746	0.00871634
1758	0.00871634
1770	0.00922907
1782	0.00820362
1794	0.00948543
1806	0.00897271
1818	0.00897271
1830	0.00871634
1842	0.00820362
1854	0.00794725
1866	0.00820362
1878	0.00794725
1890	0.00820362
1902	0.00871634
1914	0.00794725
1926	0.00794725
1938	0.00820362
1950	0.00794725
1962	0.00794725
1974	0.00794725
1986	0.00769089
1998	0.00769089
2010	0.00769089
2022	0.00769089
2034	0.00794725
2046	0.00794725
2058	0.00794725
2070	0.00794725
2082	0.00743453
2094	0.00794725
2106	0.00743453
2118	0.0069218
2130	0.00743453
2142	0.0069218
2154	0.0069218
2166	0.0069218
2178	0.00743453
2190	0.0069218
2202	0.00666544
2214	0.00666544
2226	0.00666544
2238	0.00666544
2250	0.00666544
2262	0.00666544
2274	0.0069218
2286	0.00666544
2298	0.00640908
2310	0.00538362
2322	0.00615271
2334	0.00640908
2346	0.0069218
2358	0.00640908
2370	0.00897271
2382	0.00897271
2394	0.00922907
2406	0.01128
2418	0.0102545
2430	0.00948543
2442	0.00897271
2454	0.00820362
2466	0.00794725
2478	0.00666544
2490	0.00615271
2502	0.00666544
2514	0.00640908
2526	0.00640908
2538	0.00615271
2550	0.00640908
2562	0.00615271
2574	0.00615271
2586	0.00615271
2598	0.00563999
2610	0.00563999
2622	0.00563999
2634	0.00538362
2646	0.00615271
2658	0.00615271
2670	0.00640908
2682	0.00666544
2694	0.00640908
2706	0.00666544
2718	0.00640908
2730	0.00640908
2742	0.00563999
2754	0.00615271
2766	0.00615271
2778	0.00615271
2790	0.00640908
2802	0.00640908
2814	0.00666544
2826	0.00666544
2838	0.00769089
2850	0.00743453
2862	0.00794725
2874	0.00820362
2886	0.00922907
2898	0.00999816
2910	0.00948543
2922	0.0102545
2934	0.00999816
2946	0.0102545
2958	0.0102545
2970	0.0107672
2982	0.0105109
2994	0.00948543
3006	0.00948543
3018	0.00922907
3030	0.00948543
3042	0.00666544
3054	0.00820362
3066	0.00640908
3078	0.00640908
3090	0.00640908
3102	0.00640908
3114	0.00666544
3126	0.00640908
3138	0.00640908
3150	0.00640908
3162	0.00640908
3174	0.00640908
3186	0.00615271
3198	0.0069218
3210	0.00615271
3222	0.00666544
3234	0.00640908
3246	0.00666544
3258	0.00640908
3270	0.00615271
3282	0.00640908
3294	0.00666544
3306	0.00666544
3318	0.00538362
3330	0.00640908
3342	0.00615271
3354	0.00640908
3366	0.00563999
3378	0.00666544
3390	0.00640908
3402	0.0069218
3414	0.00563999
3426	0.00563999
3438	0.00615271
3450	0.00640908
3462	0.00666544
3474	0.00615271
3486	0.00563999
3498	0.00563999
3510	0.00563999
3522	0.00615271
3534	0.00640908
3546	0.00538362
3558	0.00538362
3570	0.00640908
3582	0.00615271
3594	0.0069218
3606	0.00615271
3618	0.00615271
3630	0.00743453
3642	0.00640908
3654	0.00743453
3666	0.0069218
3678	0.00999816
3690	0.00769089
3702	0.00794725
3714	0.0069218
3726	0.00563999
3738	0.00615271
3750	0.00640908
3762	0.00615271
3774	0.00538362
3786	0.00538362
3798	0.00615271
3810	0.00538362
3822	0.00640908
3834	0.00538362
3846	0.00640908
3858	0.0069218
3870	0.00615271
3882	0.00615271
3894	0.00538362
3906	0.00563999
3918	0.00640908
3930	0.00563999
3942	0.00538362
3954	0.00538362
3966	0.00563999
