Infrared Spectrum: CARBONYL SULFIDE
Formula: C O S
CAS: 463-58-1
State: GAS (100 mmHg DILUTED TO A TOTAL PRESSURE OF 600 mmHg WITH N2)
Class: COBLENTZ
Instrument: DOW KBr FOREPRISM
Instrument parameters: GRATING CHANGED AT 5.0, 7.5, 15.0 MICRON
Sampling: TRANSMISSION
Path length: 5 CM
Resolution: 4
Origin: DOW CHEMICAL COMPANY
1/CM	TRANSMITTANCE
460.65	0.976
469.082	0.973
477.514	0.972
485.947	0.971
494.379	0.969
502.811	0.953
511.243	0.891
519.676	0.855
528.108	0.7956
536.54	0.842
544.972	0.92
553.405	0.973
561.837	0.994
570.269	1.001
578.701	1.001
587.134	1.002
595.566	1.004
603.998	1.005
612.43	1.002
620.863	0.994
629.295	1.007
637.727	1
646.159	0.978
654.592	0.962
663.024	0.975
671.456	0.979
679.888	0.976
688.321	0.972
696.753	0.968
705.185	0.965
713.617	0.96
722.05	0.956
730.482	0.962
738.914	0.965
747.346	0.966
755.779	0.965
764.211	0.968
772.643	0.966
781.075	0.965
789.508	0.969
797.94	0.969
806.372	0.966
814.804	0.962
823.237	0.933
831.669	0.8091
840.101	0.5951
848.533	0.517
856.966	0.7869
865.398	0.452
873.83	0.618
882.262	0.936
890.695	0.978
899.127	0.979
907.559	0.979
915.991	0.979
924.424	0.981
932.856	0.984
941.288	0.985
949.72	0.986
958.153	0.985
966.585	0.985
975.017	0.985
983.449	0.984
991.882	0.984
1000.31	0.982
1008.75	0.981
1017.18	0.975
1025.61	0.91
1034.04	0.758
1042.48	0.819
1050.91	0.796
1059.34	0.776
1067.77	0.868
1076.2	0.953
1084.64	0.981
1093.07	0.982
1101.5	0.982
1109.93	0.981
1118.37	0.986
1126.8	0.992
1135.23	0.991
1143.66	0.991
1152.09	0.992
1160.53	0.992
1168.96	0.991
1177.39	0.981
1185.82	0.988
1194.26	0.988
1202.69	0.989
1211.12	0.988
1219.55	0.992
1227.98	0.995
1236.42	0.988
1244.85	0.981
1253.28	0.976
1261.71	0.975
1270.15	0.975
1278.58	0.973
1287.01	0.971
1295.44	0.966
1303.87	0.966
1312.31	0.969
1320.74	0.968
1329.17	0.966
1337.6	0.965
1346.04	0.972
1354.47	0.981
1362.9	0.981
1371.33	0.972
1379.76	0.966
1388.2	0.962
1396.63	0.959
1405.06	0.96
1413.49	0.96
1421.93	0.96
1430.36	0.96
1438.79	0.96
1447.22	0.959
1455.66	0.956
1464.09	0.956
1472.52	0.945
1480.95	0.959
1489.38	0.95
1497.82	0.958
1506.25	0.94
1514.68	0.923
1523.11	0.872
1531.55	0.874
1539.98	0.839
1548.41	0.946
1556.84	0.968
1565.27	0.962
1573.71	0.959
1582.14	0.966
1590.57	0.965
1599	0.965
1607.44	0.962
1615.87	0.959
1624.3	0.959
1632.73	0.959
1641.16	0.962
1649.6	0.958
1658.03	0.959
1666.46	0.955
1674.89	0.946
1683.33	0.919
1691.76	0.898
1700.19	0.845
1708.62	0.913
1717.05	0.839
1725.49	0.885
1733.92	0.958
1742.35	0.959
1750.78	0.956
1759.22	0.958
1767.65	0.955
1776.08	0.959
1784.51	0.958
1792.95	0.958
1801.38	0.958
1809.81	0.958
1818.24	0.958
1826.67	0.958
1835.11	0.956
1843.54	0.952
1851.97	0.95
1860.4	0.939
1868.84	0.895
1877.27	0.79
1885.7	0.783
1894.13	0.868
1902.56	0.7539
1911	0.8769
1919.43	0.947
1927.86	0.956
1936.29	0.958
1944.73	0.956
1953.16	0.955
1961.59	0.953
1970.02	0.939
1978.45	0.881
1986.89	0.7191
1995.32	0.582
2003.75	0.601
2012.18	0.7062
2020.62	0.3161
2029.05	0.1053
2037.48	0.005
2045.91	0.004
2054.34	0.005
2062.78	0.004
2071.21	0.005
2079.64	0.004
2088.07	0.004
2096.51	0.7065
2104.94	0.719
2113.37	0.8531
2121.8	0.7228
2130.24	0.7866
2138.67	0.8978
2147.1	0.9464
2155.53	0.956
2163.96	0.9586
2172.4	0.958
2180.83	0.958
2189.26	0.958
2197.69	0.959
2206.13	0.962
2214.56	0.9617
2222.99	0.96
2231.42	0.962
2239.85	0.962
2248.29	0.96
2256.72	0.96
2265.15	0.959
2273.58	0.959
2282.02	0.956
2290.45	0.9472
2298.88	0.9308
2307.31	0.8934
2315.74	0.8097
2324.18	0.7313
2332.61	0.6819
2341.04	0.6587
2349.47	0.7011
2357.91	0.5988
2366.34	0.5991
2374.77	0.7147
2383.2	0.8427
2391.63	0.9617
2400.07	0.9684
2408.5	0.9719
2416.93	0.972
2425.36	0.972
2433.8	0.971
2442.23	0.9718
2450.66	0.9717
2459.09	0.972
2467.52	0.972
2475.96	0.972
2484.39	0.972
2492.82	0.973
2501.25	0.972
2509.69	0.972
2518.12	0.971
2526.55	0.971
2534.98	0.969
2543.42	0.9688
2551.85	0.969
2560.28	0.968
2568.71	0.965
2577.14	0.9684
2585.58	0.972
2594.01	0.9728
2602.44	0.973
2610.87	0.973
2619.31	0.971
2627.74	0.9718
2636.17	0.972
2644.6	0.973
2653.03	0.972
2661.47	0.972
2669.9	0.972
2678.33	0.972
2686.76	0.972
2695.2	0.971
2703.63	0.9705
2712.06	0.9682
2720.49	0.966
2728.92	0.969
2737.36	0.968
2745.79	0.969
2754.22	0.969
2762.65	0.969
2771.09	0.971
2779.52	0.971
2787.95	0.9705
2796.38	0.968
2804.81	0.968
2813.25	0.966
2821.68	0.966
2830.11	0.965
2838.54	0.963
2846.98	0.96
2855.41	0.959
2863.84	0.9539
2872.27	0.9376
2880.71	0.9077
2889.14	0.8492
2897.57	0.7158
2906	0.5384
2914.43	0.6125
2922.87	0.6309
2931.3	0.513
2939.73	0.8639
2948.16	0.968
2956.6	0.969
2965.03	0.969
2973.46	0.968
2981.89	0.9667
2990.32	0.9663
2998.76	0.966
3007.19	0.9647
3015.62	0.962
3024.05	0.9617
3032.49	0.96
3040.92	0.962
3049.35	0.962
3057.78	0.96
3066.21	0.958
3074.65	0.9369
3083.08	0.9171
3091.51	0.9339
3099.94	0.919
3108.38	0.9153
3116.81	0.9569
3125.24	0.959
3133.67	0.959
3142.1	0.959
3150.54	0.9584
3158.97	0.958
3167.4	0.958
3175.83	0.958
3184.27	0.956
3192.7	0.955
3201.13	0.955
3209.56	0.9548
3217.99	0.953
3226.43	0.952
3234.86	0.95
3243.29	0.9499
3251.72	0.949
3260.16	0.949
3268.59	0.947
3277.02	0.947
3285.45	0.946
3293.89	0.946
3302.32	0.946
3310.75	0.943
3319.18	0.943
3327.61	0.943
3336.05	0.943
3344.48	0.943
3352.91	0.945
3361.34	0.946
3369.78	0.946
3378.21	0.946
3386.64	0.947
3395.07	0.949
3403.5	0.949
3411.94	0.95
3420.37	0.952
3428.8	0.955
3437.23	0.956
3445.67	0.958
3454.1	0.96
3462.53	0.962
3470.96	0.964
3479.39	0.966
3487.83	0.9685
3496.26	0.971
3504.69	0.972
3513.12	0.973
3521.56	0.974
3529.99	0.976
3538.42	0.976
3546.85	0.976
3555.28	0.976
3563.72	0.975
3572.15	0.9721
3580.58	0.968
3589.01	0.9685
3597.45	0.973
3605.88	0.969
3614.31	0.966
3622.74	0.9734
3631.18	0.979
3639.61	0.9799
3648.04	0.981
3656.47	0.978
3664.9	0.975
3673.34	0.9667
3681.77	0.9581
3690.2	0.9584
3698.63	0.9717
3707.07	0.9586
3715.5	0.9521
3723.93	0.9586
3732.36	0.955
3740.79	0.9542
3749.23	0.9662
3757.66	0.95
3766.09	0.9756
3774.52	0.9802
3782.96	0.981
3791.39	0.981
3799.82	0.9792
