Infrared Spectrum: CARBONYL SULFIDE
Formula: C O S
CAS: 463-58-1
State: GAS (100 mmHg, N2 ADDED, TOTAL PRESSURE 600 mmHg)
Class: COBLENTZ
Instrument: DOW KBr FOREPRISM-GRATING
Instrument parameters: GRATING CHANGED AT 5.0, 7.5, 14.9 MICRON
Sampling: TRANSMISSION
Path length: 5 CM
Resolution: 2
Origin: DOW CHEMICAL COMPANY
1/CM	TRANSMITTANCE
456.873	0.974
466.307	0.974
475.741	0.974
485.175	0.974
494.609	0.97
504.043	0.9431
513.477	0.88
522.911	0.857
532.345	0.7586
541.779	0.871
551.213	0.96
560.647	0.993
570.081	1.002
579.515	1.002
588.949	1.004
598.383	1.006
607.817	1.006
617.251	1.004
626.685	1.006
636.119	1.004
645.553	0.981
654.987	0.964
664.421	0.978
673.855	0.915
683.289	0.915
692.723	0.934
702.157	0.955
711.591	0.96
721.025	0.949
730.459	0.96
739.893	0.964
749.327	0.966
758.761	0.966
768.195	0.968
777.629	0.968
787.063	0.97
796.497	0.97
805.931	0.968
815.365	0.964
824.799	0.936
834.233	0.813
843.667	0.5793
853.101	0.5389
862.535	0.634
871.969	0.462
881.403	0.8169
890.837	0.976
900.271	0.981
909.705	0.981
919.139	0.981
928.574	0.983
938.008	0.987
947.442	0.987
956.876	0.987
966.31	0.987
975.744	0.985
985.178	0.985
994.612	0.983
1004.05	0.983
1013.48	0.981
1022.91	0.957
1032.35	0.8173
1041.78	0.745
1051.22	0.81
1060.65	0.771
1070.08	0.869
1079.52	0.962
1088.95	0.985
1098.39	0.983
1107.82	0.981
1117.25	0.985
1126.69	0.991
1136.12	0.993
1145.56	0.993
1154.99	0.995
1164.42	0.995
1173.86	0.991
1183.29	0.987
1192.73	0.989
1202.16	0.993
1211.59	0.991
1221.03	0.995
1230.46	1
1239.9	0.987
1249.33	0.978
1258.76	0.976
1268.2	0.974
1277.63	0.976
1287.07	0.972
1296.5	0.968
1305.93	0.968
1315.37	0.97
1324.8	0.968
1334.24	0.962
1343.67	0.955
1353.1	0.974
1362.54	0.985
1371.97	0.976
1381.41	0.968
1390.84	0.964
1400.27	0.96
1409.71	0.962
1419.14	0.962
1428.58	0.962
1438.01	0.962
1447.44	0.96
1456.88	0.957
1466.31	0.957
1475.75	0.949
1485.18	0.96
1494.61	0.957
1504.05	0.957
1513.48	0.939
1522.92	0.899
1532.35	0.869
1541.78	0.897
1551.22	0.918
1560.65	0.955
1570.09	0.964
1579.52	0.962
1588.95	0.968
1598.39	0.966
1607.82	0.966
1617.26	0.96
1626.69	0.96
1636.12	0.96
1645.56	0.957
1654.99	0.96
1664.43	0.957
1673.86	0.947
1683.29	0.926
1692.73	0.894
1702.16	0.848
1711.6	0.9389
1721.03	0.84
1730.46	0.936
1739.9	0.96
1749.33	0.96
1758.77	0.96
1768.2	0.957
1777.63	0.96
1787.07	0.96
1796.5	0.957
1805.94	0.957
1815.37	0.957
1824.8	0.957
1834.24	0.957
1843.67	0.953
1853.11	0.951
1862.54	0.928
1871.97	0.8759
1881.41	0.756
1890.84	0.844
1900.28	0.756
1909.71	0.838
1919.14	0.945
1928.58	0.957
1938.01	0.957
1947.45	0.957
1956.88	0.957
1966.31	0.951
1975.75	0.909
1985.18	0.779
1994.62	0.6049
2004.05	0.5891
2013.48	0.7245
2022.92	0.3143
2032.35	0.0477
2041.79	0.002
2051.22	0.002
2060.65	0.002
2070.09	0.002
2079.52	0.002
2088.96	0.0916
2098.39	0.5804
2107.82	0.6912
2117.26	0.7174
2126.69	0.7414
2136.13	0.8335
2145.56	0.932
2154.99	0.9543
2164.43	0.957
2173.86	0.96
2183.3	0.96
2192.73	0.96
2202.16	0.962
2211.6	0.9631
2221.03	0.962
2230.47	0.962
2239.9	0.962
2249.33	0.962
2258.77	0.96
2268.2	0.957
2277.64	0.96
2287.07	0.956
2296.5	0.9381
2305.94	0.904
2315.37	0.8648
2324.81	0.7474
2334.24	0.6825
2343.68	0.67
2353.11	0.7423
2362.54	0.5896
2371.98	0.631
2381.41	0.7771
2390.85	0.9652
2400.28	0.972
2409.71	0.972
2419.15	0.972
2428.58	0.972
2438.02	0.972
2447.45	0.972
2456.88	0.972
2466.32	0.972
2475.75	0.972
2485.19	0.972
2494.62	0.972
2504.05	0.974
2513.49	0.97
2522.92	0.972
2532.36	0.972
2541.79	0.97
2551.22	0.97
2560.66	0.9677
2570.09	0.962
2579.53	0.97
2588.96	0.972
2598.39	0.974
2607.83	0.974
2617.26	0.972
2626.7	0.972
2636.13	0.9725
2645.56	0.974
2655	0.974
2664.43	0.972
2673.87	0.974
2683.3	0.974
2692.73	0.972
2702.17	0.97
2711.6	0.968
2721.04	0.9667
2730.47	0.968
2739.9	0.968
2749.34	0.9715
2758.77	0.972
2768.21	0.97
2777.64	0.972
2787.07	0.9708
2796.51	0.9662
2805.94	0.97
2815.38	0.9661
2824.81	0.964
2834.24	0.962
2843.68	0.96
2853.11	0.96
2862.55	0.957
2871.98	0.9365
2881.41	0.8983
2890.85	0.7965
2900.28	0.6354
2909.72	0.5348
2919.15	0.7607
2928.58	0.5332
2938.02	0.8202
2947.45	0.9648
2956.89	0.97
2966.32	0.97
2975.75	0.968
2985.19	0.968
2994.62	0.968
3004.06	0.966
3013.49	0.9636
3022.92	0.962
3032.36	0.964
3041.79	0.962
3051.23	0.962
3060.66	0.962
3070.09	0.9501
3079.53	0.9215
3088.96	0.9166
3098.4	0.941
3107.83	0.9167
3117.26	0.9536
3126.7	0.96
3136.13	0.96
3145.57	0.957
3155	0.957
3164.43	0.9569
3173.87	0.957
3183.3	0.957
3192.74	0.957
3202.17	0.955
3211.6	0.953
3221.04	0.953
3230.47	0.951
3239.91	0.951
3249.34	0.949
3258.77	0.949
3268.21	0.949
3277.64	0.9481
3287.08	0.947
3296.51	0.945
3305.94	0.945
3315.38	0.945
3324.81	0.945
3334.25	0.9446
3343.68	0.943
3353.11	0.945
3362.55	0.9462
3371.98	0.947
3381.42	0.949
3390.85	0.949
3400.28	0.951
3409.72	0.951
3419.15	0.9517
3428.59	0.955
3438.02	0.955
3447.45	0.957
3456.89	0.96
3466.32	0.96
3475.76	0.9622
3485.19	0.968
3494.62	0.968
3504.06	0.971
3513.49	0.972
3522.93	0.976
3532.36	0.976
3541.79	0.976
3551.23	0.976
3560.66	0.976
3570.1	0.974
3579.53	0.9697
3588.96	0.968
3598.4	0.9757
3607.83	0.97
3617.27	0.964
3626.7	0.9749
3636.13	0.978
3645.57	0.981
3655	0.978
3664.44	0.976
3673.87	0.969
3683.3	0.957
3692.74	0.96
3702.17	0.9658
3711.61	0.9571
3721.04	0.9552
3730.47	0.957
3739.91	0.9569
3749.34	0.964
3758.78	0.9532
3768.21	0.9673
3777.64	0.9804
