Infrared Spectrum: 2-Methylbutyraldehyde
Formula: C 5 H 10 O
CAS: 96-17-3
State: gas
Instrument: HP-GC/MS/IRD
Origin: NIST Mass Spectrometry Data Center
1/CM	ABSORBANCE
550	0.0002117
562	0.000174
574	0.0001682
586	8.7e-06
598	0.0001682
610	0.0001421
622	0.0003016
634	0.0004002
646	0.000377
658	0.0003219
670	0.0002378
682	0.0002436
694	0.0001624
706	0.0001711
718	0.0002088
730	0.0003132
742	0.0006206
754	0.0011919
766	0.0019343
778	0.0020996
790	0.0015979
802	0.0009251
814	0.0005307
826	0.000406
838	0.0004031
850	0.0004292
862	0.000667
874	0.0012383
886	0.0022968
898	0.0031668
910	0.0031465
922	0.002291
934	0.0014007
946	0.000899
958	0.00116
970	0.001334
982	0.0014065
994	0.0012586
1006	0.0012151
1018	0.0010817
1030	0.0008178
1042	0.0005887
1054	0.0004553
1066	0.0003625
1078	0.0003596
1090	0.0004263
1102	0.000638
1114	0.0007859
1126	0.000899
1138	0.0011571
1150	0.0013746
1162	0.0012789
1174	0.001073
1186	0.0007743
1198	0.0005597
1210	0.0005887
1222	0.0006728
1234	0.0006728
1246	0.0006989
1258	0.0006989
1270	0.0007221
1282	0.0007047
1294	0.0006496
1306	0.0006293
1318	0.0007714
1330	0.0009744
1342	0.0011629
1354	0.0013108
1366	0.001827
1378	0.0025346
1390	0.0030073
1402	0.0024186
1414	0.0015979
1426	0.0014094
1438	0.0021837
1450	0.0036685
1462	0.0045849
1474	0.0037497
1486	0.0022301
1498	0.0010237
1510	0.0005452
1522	0.0003944
1534	0.0003277
1546	0.0003132
1558	0.0003393
1570	0.0002813
1582	0.000261
1594	0.0002784
1606	0.0003132
1618	0.0003654
1630	0.000493
1642	0.0007076
1654	0.0010498
1666	0.0014558
1678	0.0019633
1690	0.0026535
1702	0.0040194
1714	0.0083578
1726	0.0197751
1738	0.028333
1750	0.0275297
1762	0.0131196
1774	0.005365
1786	0.0034075
1798	0.0025027
1810	0.001711
1822	0.0010643
1834	0.0006815
1846	0.000493
1858	0.0003451
1870	0.0002871
1882	0.0002262
1894	0.0002059
1906	0.0001711
1918	0.0001682
1930	0.0001334
1942	0.0001015
1954	9.57e-05
1966	6.67e-05
1978	5.51e-05
1990	0.0001015
2002	8.7e-05
2014	9.86e-05
2026	8.12e-05
2038	9.28e-05
2050	0.000116
2062	0.0001102
2074	7.83e-05
2086	8.41e-05
2098	7.25e-05
2110	9.28e-05
2122	5.22e-05
2134	6.38e-05
2146	3.48e-05
2158	5.22e-05
2170	4.35e-05
2182	3.19e-05
2194	3.48e-05
2206	4.06e-05
2218	1.45e-05
2230	3.48e-05
2242	4.64e-05
2254	3.19e-05
2266	2.32e-05
2278	8.7e-06
2290	1.16e-05
2302	6.96e-05
2314	6.96e-05
2326	8.41e-05
2338	5.8e-05
2350	6.09e-05
2362	0.0001131
2374	8.41e-05
2386	7.83e-05
2398	5.8e-05
2410	4.93e-05
2422	5.51e-05
2434	8.12e-05
2446	6.67e-05
2458	4.35e-05
2470	2.32e-05
2482	2.9e-05
2494	2.03e-05
2506	4.64e-05
2518	8.12e-05
2530	9.86e-05
2542	0.0001044
2554	0.0001073
2566	0.0002001
2578	0.0002842
2590	0.000377
2602	0.0005771
2614	0.0008323
2626	0.0012383
2638	0.0016791
2650	0.0022243
2662	0.0032857
2674	0.0051997
2686	0.0078184
2698	0.0093322
2710	0.0088914
2722	0.0070238
2734	0.0054433
2746	0.0046197
2758	0.0043152
2770	0.0043355
2782	0.004872
2794	0.0057855
2806	0.0058783
2818	0.005249
2830	0.0042253
2842	0.004089
2854	0.0053824
2866	0.0076676
2878	0.0103994
2890	0.010672
2902	0.0099412
2914	0.0099818
2926	0.0125715
2938	0.0149495
2950	0.0158891
2962	0.0185513
2974	0.0221328
2986	0.0175334
2998	0.009019
3010	0.0033669
3022	0.0017458
3034	0.0012818
3046	0.0010788
3058	0.0010063
3070	0.0009396
3082	0.0007975
3094	0.0007163
3106	0.0006583
3118	0.0006003
3130	0.0005278
3142	0.0004959
3154	0.0004524
3166	0.0004321
3178	0.0003799
3190	0.0002929
3202	0.0002378
3214	0.0001102
3226	9.28e-05
3238	6.38e-05
3250	4.64e-05
3262	8.7e-06
3274	8.7e-06
3286	8.99e-05
3298	1.16e-05
3310	4.93e-05
3322	2.9e-05
3334	7.83e-05
3346	6.09e-05
3358	5.8e-05
3370	8.41e-05
3382	8.12e-05
3394	0.0001189
3406	0.0001827
3418	0.0001769
3430	0.0002813
3442	0.0004234
3454	0.0006206
3466	0.0006467
3478	0.0005394
3490	0.0003364
3502	0.0002146
3514	0.0002059
3526	0.0001189
3538	9.28e-05
3550	0.0001247
3562	4.64e-05
3574	2.9e-05
3586	1.45e-05
3598	8.41e-05
3610	4.06e-05
3622	7.83e-05
3634	8.12e-05
3646	9.28e-05
3658	6.38e-05
3670	9.86e-05
3682	5.8e-05
3694	0.0001131
3706	0
3718	0.0001102
3730	8.41e-05
3742	7.25e-05
3754	0.0001305
3766	9.28e-05
3778	4.06e-05
3790	6.67e-05
3802	9.86e-05
3814	0.0001218
3826	8.7e-05
3838	9.57e-05
