Infrared Spectrum: 1-Chloro-2-methyl-1-propene
Formula: C 4 H 7 Cl
CAS: 513-37-1
State: gas
Instrument: HP-GC/MS/IRD
Origin: NIST Mass Spectrometry Data Center
1/CM	ABSORBANCE
550	0.0002385
562	0.000297
574	0.000216
586	0.0001395
598	0.0001665
610	0.0002385
622	0.0002925
634	0.000351
646	0.0005985
658	0.000729
670	0.0007425
682	0.00054
694	0.000387
706	0.000567
718	0.000801
730	0.0016335
742	0.0045855
754	0.015678
766	0.0312615
778	0.03879
790	0.026757
802	0.0137205
814	0.0077625
826	0.0072585
838	0.017505
850	0.0338355
862	0.034695
874	0.016965
886	0.003762
898	0.0025695
910	0.0022455
922	0.0018045
934	0.0015885
946	0.001656
958	0.0020835
970	0.002349
982	0.002682
994	0.0027765
1006	0.0028935
1018	0.003159
1030	0.0041985
1042	0.0080955
1054	0.013572
1066	0.0143145
1078	0.0100755
1090	0.00513
1102	0.0029115
1114	0.0016335
1126	0.001116
1138	0.001125
1150	0.001773
1162	0.004005
1174	0.007425
1186	0.0080145
1198	0.0057825
1210	0.0027765
1222	0.002214
1234	0.00207
1246	0.002223
1258	0.00243
1270	0.0027225
1282	0.004158
1294	0.0111015
1306	0.0149445
1318	0.0142425
1330	0.005814
1342	0.00405
1354	0.005085
1366	0.007974
1378	0.0093105
1390	0.0105795
1402	0.0077265
1414	0.006651
1426	0.008415
1438	0.0109485
1450	0.012816
1462	0.0111195
1474	0.0084015
1486	0.0055395
1498	0.004077
1510	0.003672
1522	0.003744
1534	0.004113
1546	0.0054315
1558	0.006102
1570	0.0053955
1582	0.0034785
1594	0.0024705
1606	0.002655
1618	0.003933
1630	0.0072045
1642	0.0099855
1654	0.009072
1666	0.00423
1678	0.001359
1690	0.000972
1702	0.0011385
1714	0.001206
1726	0.001098
1738	0.00063
1750	0.0004275
1762	0.0004275
1774	0.0003825
1786	0.0003195
1798	0.0003015
1810	0.0003195
1822	0.0003915
1834	0.000378
1846	0.000333
1858	0.0003015
1870	0.000297
1882	0.000216
1894	0.000171
1906	0.000171
1918	0.000189
1930	0.000234
1942	0.0002745
1954	0.0002925
1966	0.0002205
1978	0.0001575
1990	0.0001125
2002	8.1e-05
2014	5.4e-05
2026	6.3e-05
2038	4.05e-05
2050	4.5e-05
2062	1.35e-05
2074	2.25e-05
2086	1.8e-05
2098	2.25e-05
2110	4.5e-05
2122	6.75e-05
2134	0.0002025
2146	0.0002835
2158	0.000351
2170	0.0003015
2182	0.0001485
2194	5.4e-05
2206	7.2e-05
2218	8.1e-05
2230	0.000108
2242	0.000144
2254	0.0001215
2266	5.4e-05
2278	4.95e-05
2290	0.0001035
2302	9.9e-05
2314	9.45e-05
2326	9.9e-05
2338	0.000153
2350	0.000198
2362	0.0001395
2374	0.0001755
2386	0.000144
2398	0.0002025
2410	0.000234
2422	0.0002115
2434	0.0002295
2446	0.000216
2458	0.0002205
2470	0.0001845
2482	0.000189
2494	0.0002205
2506	0.000207
2518	0.0002295
2530	0.0002385
2542	0.0002115
2554	0.0002655
2566	0.000279
2578	0.000243
2590	0.0001665
2602	0.0001575
2614	0.000162
2626	0.000189
2638	0.000126
2650	0.000144
2662	0.000171
2674	0.000306
2686	0.0003645
2698	0.0005445
2710	0.000729
2722	0.001269
2734	0.0021285
2746	0.00243
2758	0.0020205
2770	0.001395
2782	0.001458
2794	0.0017505
2806	0.002295
2818	0.0031455
2830	0.0043245
2842	0.0067545
2854	0.01179
2866	0.016722
2878	0.0197235
2890	0.020844
2902	0.0236925
2914	0.03546
2926	0.0428625
2938	0.0438435
2950	0.0358065
2962	0.028764
2974	0.0261585
2986	0.0228825
2998	0.0166455
3010	0.0120915
3022	0.010026
3034	0.0089055
3046	0.0080775
3058	0.0087615
3070	0.0122985
3082	0.0118395
3094	0.009279
3106	0.004428
3118	0.0029385
3130	0.002025
3142	0.001404
3154	0.0009495
3166	0.0007155
3178	0.000567
3190	0.0005985
3202	0.0004725
3214	0.000432
3226	0.000333
3238	0.000288
3250	0.000324
3262	0.0003465
3274	0.000225
3286	0.000378
3298	0.000234
3310	0.0002655
3322	0.000279
3334	0.000279
3346	0.00027
3358	0.0002565
3370	0.00027
3382	0.000252
3394	0.00027
3406	0.0001575
3418	0.0001125
3430	0.000108
3442	0.000162
3454	0.0002385
3466	0.000153
3478	0.0001485
3490	9.45e-05
3502	0.0001035
3514	9.9e-05
3526	7.65e-05
3538	0.0001305
3550	8.55e-05
3562	7.65e-05
3574	8.55e-05
3586	0.0001125
3598	0.0001395
3610	7.2e-05
3622	6.75e-05
3634	0.0001035
3646	0.000171
3658	0.000162
3670	0.0001125
3682	0.0002025
3694	0.0001035
3706	0.0001935
3718	0.0001575
3730	0.0001215
3742	0.0001755
3754	0.00018
3766	0.000171
3778	0.000216
3790	0.0001935
3802	0.0002115
3814	0.0002475
3826	0.0004185
3838	0.0005175
