Infrared Spectrum: Methane, fluoro-
Formula: C H 3 F
CAS: 593-53-3
State: gas
Origin: Sadtler Research Labs Under US-EPA Contract
1/CM	ABSORBANCE
450	0
462	0.0120334
474	0.0144217
486	0.0120334
498	0.00817536
510	0.0101044
522	0.0114822
534	0.0115741
546	0.0107474
558	0.00872651
570	0.0122171
582	0.0100125
594	0.0100125
606	0.0107474
618	0.0102881
630	0.00881837
642	0.0124927
654	0.0101044
666	0.00909394
678	0.00955323
690	0.00716492
702	0.0101044
714	0.0111148
726	0.00992066
738	0.0100125
750	0.00946137
762	0.00964509
774	0.0102881
786	0.00900208
798	0.0104718
810	0.00982881
822	0.00936952
834	0.0100125
846	0.0106555
858	0.00964509
870	0.0117578
882	0.0113904
894	0.0109311
906	0.0127683
918	0.0128601
930	0.014881
942	0.0236075
954	0.0449186
966	0.078906
978	0.150463
990	0.248935
1002	0.371933
1014	0.505403
1026	0.479499
1038	0.454054
1050	0.476743
1062	0.594138
1074	0.874856
1086	0.610764
1098	0.228543
1110	0.0319666
1122	0.0339875
1134	0.0360083
1146	0.0421628
1158	0.0328852
1170	0.0383966
1182	0.0403257
1194	0.0268225
1206	0.0298539
1218	0.0229645
1230	0.0218622
1242	0.0135031
1254	0.0153403
1266	0.0149729
1278	0.0122171
1290	0.0136868
1302	0.0152484
1314	0.0165344
1326	0.0181879
1338	0.0235156
1350	0.0240668
1362	0.0268225
1374	0.029119
1386	0.0367432
1398	0.0389478
1410	0.0402338
1422	0.0438163
1434	0.0450104
1446	0.0321503
1458	0.0560334
1470	0.0954405
1482	0.020025
1494	0.0393152
1506	0.0476743
1518	0.05043
1530	0.0565845
1542	0.0650355
1554	0.0527265
1566	0.0436325
1578	0.0354572
1590	0.0307724
1602	0.0273737
1614	0.0209436
1626	0.0178205
1638	0.0137787
1650	0.0114822
1662	0.0113904
1674	0.00909394
1686	0.00891023
1698	0.00854279
1710	0.00881837
1722	0.00881837
1734	0.00799165
1746	0.0074405
1758	0.00881837
1770	0.00863465
1782	0.00817536
1794	0.00946137
1806	0.00955323
1818	0.00973695
1830	0.00881837
1842	0.00900208
1854	0.0100125
1866	0.0091858
1878	0.00982881
1890	0.00946137
1902	0.00992066
1914	0.00936952
1926	0.0101044
1938	0.0101044
1950	0.0102881
1962	0.0108392
1974	0.0105637
1986	0.0118497
1998	0.0136868
2010	0.0149729
2022	0.0185553
2034	0.0220459
2046	0.0264551
2058	0.0287516
2070	0.0274655
2082	0.0413361
2094	0.031048
2106	0.0567682
2118	0.0127683
2130	0.00982881
2142	0.0114822
2154	0.0109311
2166	0.0113904
2178	0.0118497
2190	0.0118497
2202	0.0126764
2214	0.0118497
2226	0.0111148
2238	0.0120334
2250	0.0108392
2262	0.00973695
2274	0.0102881
2286	0.00872651
2298	0.00835908
2310	0.00826722
2322	0.00891023
2334	0.00900208
2346	0.00909394
2358	0.00780793
2370	0.0080835
2382	0.00799165
2394	0.0074405
2406	0.00725678
2418	0.00688935
2430	0.00698121
2442	0.00688935
2454	0.00698121
2466	0.00698121
2478	0.00670563
2490	0.00652192
2502	0.00670563
2514	0.00679749
2526	0.0063382
2538	0.00725678
2550	0.00707307
2562	0.00725678
2574	0.00817536
2586	0.00845094
2598	0.00936952
2610	0.01038
2622	0.012309
2634	0.0136868
2646	0.0154321
2658	0.0125845
2670	0.00955323
2682	0.0091858
2694	0.00854279
2706	0.0080835
2718	0.00826722
2730	0.00753236
2742	0.00725678
2754	0.00771607
2766	0.00835908
2778	0.0107474
2790	0.0160751
2802	0.032334
2814	0.0698121
2826	0.119875
2838	0.160292
2850	0.132735
2862	0.263357
2874	0.130255
2886	0.232768
2898	0.227073
2910	0.227716
2922	0.320676
2934	0.397102
2946	0.42815
2958	0.306438
2970	0.281728
2982	0.454881
2994	0.544626
3006	0.506964
3018	0.440275
3030	0.463607
3042	0.323065
3054	0.24324
3066	0.209712
3078	0.204568
3090	0.155607
3102	0.136225
3114	0.0928684
3126	0.064668
3138	0.0416117
3150	0.0315073
3162	0.0181879
3174	0.0121253
3186	0.0104718
3198	0.00789979
3210	0.00826722
3222	0.00872651
3234	0.00698121
3246	0.00753236
3258	0.00716492
3270	0.00643006
3282	0.00753236
3294	0.00762421
3306	0.00652192
3318	0.00789979
3330	0.00771607
3342	0.00780793
3354	0.00780793
3366	0.00762421
3378	0.00753236
3390	0.00789979
3402	0.00854279
3414	0.00799165
3426	0.00789979
3438	0.0074405
3450	0.00789979
3462	0.00762421
3474	0.00799165
3486	0.00900208
3498	0.0080835
3510	0.00771607
3522	0.0080835
3534	0.00734864
3546	0.00661378
3558	0.00826722
3570	0.00661378
3582	0.00789979
3594	0.00734864
3606	0.00587891
3618	0.00734864
3630	0.00780793
3642	0.00780793
3654	0.00780793
3666	0.00698121
3678	0.00891023
3690	0.00854279
3702	0.0063382
3714	0.00587891
3726	0.00707307
3738	0.00652192
3750	0.0074405
3762	0.00661378
3774	0.00725678
3786	0.00734864
3798	0.00707307
3810	0.00587891
3822	0.00587891
3834	0.00753236
3846	0.00661378
3858	0.00835908
3870	0.00587891
3882	0.00670563
3894	0.00587891
3906	0.0091858
3918	0.00872651
3930	0.00863465
3942	0.00900208
3954	0.00900208
3966	0.0100125
