Infrared Spectrum: 4-Chloro-1-butanol
Formula: C 4 H 9 Cl O
CAS: 928-51-8
State: gas
Instrument: HP-GC/MS/IRD
Origin: NIST Mass Spectrometry Data Center
1/CM	ABSORBANCE
550	0.0002751
562	1.89e-05
574	5.67e-05
586	8.82e-05
598	6.44e-05
610	5.04e-05
622	0.0001113
634	0.0003353
646	0.0007189
658	0.0011284
670	0.0009723
682	0.0004207
694	0.0002058
706	0.0002611
718	0.0005691
730	0.0009219
742	0.0010871
754	0.0008967
766	0.0006412
778	0.0003626
790	0.0003374
802	0.0002856
814	0.0002821
826	0.0004333
838	0.0002912
850	0.0002835
862	0.0003983
874	0.0005733
886	0.0008225
898	0.0011319
910	0.0013279
922	0.0013356
934	0.0011781
946	0.0011256
958	0.0012516
970	0.0012173
982	0.0012733
994	0.0014546
1006	0.001834
1018	0.0026502
1030	0.00371
1042	0.0045794
1054	0.0050995
1066	0.0047887
1078	0.0035868
1090	0.0023821
1102	0.001596
1114	0.0010087
1126	0.0007833
1138	0.0007476
1150	0.0007462
1162	0.0006986
1174	0.00077
1186	0.0009303
1198	0.0009268
1210	0.0009772
1222	0.0010766
1234	0.0010962
1246	0.0011424
1258	0.0013839
1270	0.0017038
1282	0.0019684
1294	0.0022001
1306	0.002093
1318	0.001673
1330	0.0012495
1342	0.001057
1354	0.0010367
1366	0.0010696
1378	0.0011746
1390	0.0011655
1402	0.0009569
1414	0.0007469
1426	0.0008281
1438	0.0011823
1450	0.0013972
1462	0.0011522
1474	0.0008225
1486	0.0006111
1498	0.0004011
1510	0.0002968
1522	0.0002478
1534	0.0002051
1546	0.000189
1558	0.0001848
1570	0.0001393
1582	0.0001197
1594	0.0001001
1606	8.33e-05
1618	8.26e-05
1630	5.11e-05
1642	3.15e-05
1654	3.71e-05
1666	1.96e-05
1678	1.68e-05
1690	2.31e-05
1702	1.89e-05
1714	2.8e-06
1726	2.1e-05
1738	1.61e-05
1750	3.57e-05
1762	3.29e-05
1774	4.34e-05
1786	3.85e-05
1798	5.74e-05
1810	6.72e-05
1822	7e-05
1834	5.67e-05
1846	4.9e-05
1858	7.42e-05
1870	5.25e-05
1882	3.78e-05
1894	5.18e-05
1906	5.11e-05
1918	4.34e-05
1930	6.02e-05
1942	7.7e-05
1954	5.95e-05
1966	7e-05
1978	0.0001015
1990	6.65e-05
2002	8.54e-05
2014	9.38e-05
2026	6.93e-05
2038	6.93e-05
2050	7.35e-05
2062	6.58e-05
2074	8.33e-05
2086	7.42e-05
2098	6.72e-05
2110	6.79e-05
2122	5.04e-05
2134	6.23e-05
2146	5.74e-05
2158	5.81e-05
2170	3.99e-05
2182	5.6e-05
2194	7.07e-05
2206	3.99e-05
2218	4.2e-05
2230	4.2e-05
2242	3.5e-05
2254	5.25e-05
2266	3.99e-05
2278	5.74e-05
2290	5.18e-05
2302	5.39e-05
2314	4.34e-05
2326	3.64e-05
2338	7e-05
2350	6.23e-05
2362	8.82e-05
2374	8.4e-05
2386	1.82e-05
2398	3.57e-05
2410	5.95e-05
2422	5.04e-05
2434	4.48e-05
2446	5.11e-05
2458	3.99e-05
2470	4.34e-05
2482	6.3e-06
2494	5.11e-05
2506	4.06e-05
2518	3.5e-05
2530	3.22e-05
2542	1.33e-05
2554	9.1e-06
2566	1.89e-05
2578	2.73e-05
2590	3.99e-05
2602	3.99e-05
2614	5.6e-05
2626	7.28e-05
2638	7.07e-05
2650	0.0001043
2662	9.45e-05
2674	0.0001204
2686	0.0001778
2698	0.0002142
2710	0.0002219
2722	0.0002289
2734	0.0002821
2746	0.0003269
2758	0.0003388
2770	0.0003822
2782	0.0004354
2794	0.0005271
2806	0.0006524
2818	0.0008155
2830	0.0011473
2842	0.0017157
2854	0.0024584
2866	0.0033537
2878	0.0042581
2890	0.0046305
2902	0.0047411
2914	0.0051023
2926	0.0058653
2938	0.0065247
2950	0.007
2962	0.0064281
2974	0.0051702
2986	0.0036729
2998	0.0025662
3010	0.0017171
3022	0.0008659
3034	0.0004613
3046	0.0003059
3058	0.0001897
3070	0.0001512
3082	0.00014
3094	0.0001155
3106	7e-05
3118	3.64e-05
3130	7.07e-05
3142	1.61e-05
3154	3.92e-05
3166	3.5e-05
3178	4.48e-05
3190	1.75e-05
3202	8.19e-05
3214	6.3e-05
3226	3.99e-05
3238	0.0001015
3250	4.48e-05
3262	3.71e-05
3274	4.55e-05
3286	5.18e-05
3298	6.93e-05
3310	4.97e-05
3322	6.72e-05
3334	6.02e-05
3346	5.39e-05
3358	7.91e-05
3370	8.96e-05
3382	9.03e-05
3394	0.0001309
3406	0.0001127
3418	0.0001043
3430	0.0001358
3442	0.0001771
3454	0.000161
3466	0.000161
3478	0.0001778
3490	0.0001708
3502	0.0001729
3514	0.0001659
3526	0.0001435
3538	0.0001946
3550	0.0001806
3562	0.0001246
3574	0.0001988
3586	0.0002436
3598	0.0002499
3610	0.0002982
3622	0.0004018
3634	0.0004781
3646	0.0007567
3658	0.0012628
3670	0.001617
3682	0.0012789
3694	0.000602
3706	0.0003948
3718	0.0002702
3730	0.0002247
3742	0.0002338
3754	0.0002268
3766	0.0001701
3778	0.0002212
3790	0.000189
3802	0.0002373
3814	0.0001764
3826	0.0001771
3838	0.0002282
