Infrared Spectrum: Methane, chlorodifluoro-
Formula: C H Cl F 2
CAS: 75-45-6
State: gas
Origin: Sadtler Research Labs Under US-EPA Contract
1/CM	ABSORBANCE
450	0.00199718
462	0.000665728
474	0.00156922
486	0.000808384
498	0.00318598
510	0.00556358
522	0.0035664
534	0.00294822
546	0.00413702
558	0.00332864
570	0.00627686
582	0.00622931
594	0.0110321
606	0.00851181
618	0.00565869
630	0.00504051
642	0.0046601
654	0.00337619
666	0.00370906
678	0.00233005
690	0.00266291
702	0.00256781
714	0.00370906
726	0.0034713
738	0.00437478
750	0.00527827
762	0.0072279
774	0.0166908
786	0.0524023
798	0.0913474
810	0.119831
822	0.117453
834	0.0336668
846	0.0182124
858	0.00618176
870	0.00332864
882	0.00427968
894	0.00337619
906	0.00271046
918	0.00427968
930	0.00404192
942	0.00380416
954	0.00451744
966	0.00385171
978	0.0034713
990	0.00370906
1002	0.00252026
1014	0.00385171
1026	0.00370906
1038	0.0034713
1050	0.0046601
1062	0.0072279
1074	0.0215886
1086	0.0820272
1098	0.213223
1110	0.315222
1122	0.357258
1134	0.151786
1146	0.0619603
1158	0.026534
1170	0.0154068
1182	0.0121258
1194	0.0071328
1206	0.00575379
1218	0.00385171
1230	0.0036615
1242	0.00318598
1254	0.00342374
1266	0.00413702
1278	0.00665728
1290	0.0213984
1302	0.0427492
1314	0.0611994
1326	0.0646707
1338	0.0199718
1350	0.00879712
1362	0.0103663
1374	0.00542093
1386	0.0046601
1398	0.00309088
1410	0.00323354
1422	0.00361395
1434	0.00328109
1446	0.00309088
1458	0.00299578
1470	0.00290067
1482	0.00309088
1494	0.0023776
1506	0.00342374
1518	0.00290067
1530	0.00271046
1542	0.00342374
1554	0.00337619
1566	0.00318598
1578	0.00328109
1590	0.00328109
1602	0.0034713
1614	0.00370906
1626	0.00394682
1638	0.0035664
1650	0.00318598
1662	0.00313843
1674	0.00342374
1686	0.00370906
1698	0.00385171
1710	0.00370906
1722	0.00313843
1734	0.00328109
1746	0.00328109
1758	0.00290067
1770	0.00294822
1782	0.00299578
1794	0.00290067
1806	0.00271046
1818	0.00304333
1830	0.00285312
1842	0.00304333
1854	0.00271046
1866	0.00290067
1878	0.00280557
1890	0.00275802
1902	0.00275802
1914	0.00285312
1926	0.00290067
1938	0.00280557
1950	0.00309088
1962	0.00266291
1974	0.00285312
1986	0.00275802
1998	0.00290067
2010	0.00299578
2022	0.00280557
2034	0.00280557
2046	0.00309088
2058	0.00275802
2070	0.00271046
2082	0.00261536
2094	0.00271046
2106	0.00299578
2118	0.00256781
2130	0.00261536
2142	0.00290067
2154	0.00299578
2166	0.00304333
2178	0.00370906
2190	0.00489786
2202	0.00632442
2214	0.00732301
2226	0.00518317
2238	0.00385171
2250	0.00328109
2262	0.00318598
2274	0.00252026
2286	0.00180698
2298	0.0010937
2310	9.5104e-05
2322	0.000332864
2334	0.00199718
2346	0.00309088
2358	0.00199718
2370	0.00418458
2382	0.00285312
2394	0.00328109
2406	0.00323354
2418	0.00337619
2430	0.00290067
2442	0.0024727
2454	0.00275802
2466	0.00252026
2478	0.0022825
2490	0.0024727
2502	0.00261536
2514	0.00223494
2526	0.00218739
2538	0.0024727
2550	0.00218739
2562	0.0022825
2574	0.0022825
2586	0.00223494
2598	0.00194963
2610	0.00242515
2622	0.00161677
2634	0.00218739
2646	0.0022825
2658	0.00209229
2670	0.0022825
2682	0.00218739
2694	0.00223494
2706	0.00242515
2718	0.00190208
2730	0.00185453
2742	0.00213984
2754	0.00156922
2766	0.00199718
2778	0.00199718
2790	0.00147411
2802	0.00194963
2814	0.00213984
2826	0.00175942
2838	0.00209229
2850	0.00190208
2862	0.00190208
2874	0.00175942
2886	0.00171187
2898	0.00156922
2910	0.00199718
2922	0.00209229
2934	0.00166432
2946	0.00218739
2958	0.00166432
2970	0.00156922
2982	0.00242515
2994	0.00399437
3006	0.00656218
3018	0.00732301
3030	0.00789363
3042	0.00580134
3054	0.00399437
3066	0.00233005
3078	0.00137901
3090	0.00166432
3102	0.00152166
3114	0.00204474
3126	0.00152166
3138	0.00175942
3150	0.00156922
3162	0.00161677
3174	0.00152166
3186	0.00137901
3198	0.00166432
3210	0.0012839
3222	0.00156922
3234	0.00123635
3246	0.000998592
3258	0.0010937
3270	0.00114125
3282	0.0012839
3294	0.0011888
3306	0.00104614
3318	0.0012839
3330	0.00095104
3342	0.00133146
3354	0.00161677
3366	0.00190208
3378	0.00190208
3390	0.00175942
3402	0.00095104
3414	0.000998592
3426	0.000618176
3438	0.00104614
3450	0.00161677
3462	0.00209229
3474	0.00123635
3486	0.00166432
3498	0.0011888
3510	0.000808384
3522	0.000618176
3534	0.00147411
3546	0.000998592
3558	0.000998592
3570	0.00114125
3582	0.00071328
3594	0.0011888
3606	0.00095104
3618	0.00047552
3630	0.00095104
3642	0.00156922
3654	0.000998592
3666	0.00190208
3678	0.000855936
3690	0.000570624
3702	0.000618176
3714	0.00156922
3726	0.00223494
3738	0.00133146
3750	0.00175942
3762	0.000332864
3774	0.000665728
3786	0.00123635
3798	0.000380416
3810	0.00166432
3822	0.00171187
3834	0.00123635
3846	0.00185453
3858	0.0010937
3870	0.00213984
3882	0.00104614
3894	0.000523072
3906	9.5104e-05
3918	0.0012839
3930	0.00047552
3942	0.000427968
3954	0.000332864
3966	0.000285312
