Infrared Spectrum: ACETIC ACID, ETHYL ESTER
Formula: C4 H8 O2
CAS: 141-78-6
State: GAS (20 mmHg, N2 ADDED, TOTAL PRESSURE 600 mmHg)
Class: COBLENTZ
Instrument: DOW KBr FOREPRISM-GRATING
Instrument parameters: GRATING CHANGED AT 5.0, 7.5, 15.0 MICRON
Sampling: TRANSMISSION
Path length: 5 CM
Resolution: 2
Origin: DOW CHEMICAL COMPANY
1/CM	TRANSMITTANCE
380.655	0.982
390.015	0.982
399.376	0.981
408.736	0.981
418.097	0.978
427.457	0.979
436.817	0.972
446.178	0.962
455.538	0.95
464.898	0.954
474.259	0.973
483.619	0.986
492.98	0.992
502.34	0.995
511.7	0.997
521.061	0.997
530.421	0.998
539.782	0.998
549.142	1.001
558.502	0.998
567.863	1
577.223	0.995
586.584	0.981
595.944	0.949
605.304	0.901
614.665	0.912
624.025	0.866
633.385	0.876
642.746	0.902
652.106	0.991
661.467	0.994
670.827	0.995
680.187	0.997
689.548	1.001
698.908	1
708.269	1.002
717.629	1.002
726.989	1.004
736.35	1.005
745.71	1.002
755.071	0.997
764.431	0.985
773.791	0.963
783.152	0.933
792.512	0.927
801.872	0.957
811.233	0.975
820.593	0.975
829.954	0.957
839.314	0.914
848.674	0.89
858.035	0.89
867.395	0.936
876.756	0.981
886.116	0.994
895.476	0.992
904.837	0.949
914.197	0.904
923.558	0.88
932.918	0.87
942.278	0.889
951.639	0.953
960.999	0.989
970.359	0.985
979.72	0.97
989.08	0.943
998.441	0.918
1007.8	0.917
1017.16	0.92
1026.52	0.879
1035.88	0.678
1045.24	0.318
1054.6	0.175
1063.96	0.186
1073.32	0.497
1082.68	0.643
1092.04	0.69
1101.4	0.646
1110.77	0.678
1120.13	0.793
1129.49	0.873
1138.85	0.933
1148.21	0.941
1157.57	0.934
1166.93	0.93
1176.29	0.934
1185.65	0.922
1195.01	0.89
1204.37	0.764
1213.73	0.521
1223.09	0.255
1232.45	0.004
1241.81	0.005
1251.17	0.008
1260.53	0.068
1269.89	0.357
1279.25	0.513
1288.61	0.758
1297.97	0.768
1307.33	0.715
1316.69	0.739
1326.05	0.86
1335.41	0.931
1344.77	0.911
1354.14	0.78
1363.5	0.4971
1372.86	0.309
1382.22	0.289
1391.58	0.424
1400.94	0.686
1410.3	0.773
1419.66	0.828
1429.02	0.816
1438.38	0.793
1447.74	0.77
1457.1	0.742
1466.46	0.745
1475.82	0.758
1485.18	0.806
1494.54	0.85
1503.9	0.898
1513.26	0.92
1522.62	0.931
1531.98	0.934
1541.34	0.933
1550.7	0.934
1560.06	0.933
1569.42	0.941
1578.78	0.952
1588.15	0.96
1597.51	0.962
1606.87	0.959
1616.23	0.954
1625.59	0.952
1634.95	0.949
1644.31	0.949
1653.67	0.944
1663.03	0.938
1672.39	0.933
1681.75	0.924
1691.11	0.914
1700.47	0.909
1709.83	0.896
1719.19	0.882
1728.55	0.799
1737.91	0.594
1747.27	0.216
1756.63	0.023
1765.99	0.021
1775.35	0.065
1784.71	0.375
1794.07	0.827
1803.43	0.918
1812.79	0.927
1822.15	0.924
1831.52	0.924
1840.88	0.928
1850.24	0.937
1859.6	0.941
1868.96	0.943
1878.32	0.943
1887.68	0.94
1897.04	0.937
1906.4	0.94
1915.76	0.95
1925.12	0.959
1934.48	0.963
1943.84	0.963
1953.2	0.962
1962.56	0.96
1971.92	0.959
1981.28	0.96
1990.64	0.957
2000	0.947
2009.36	0.944
2018.72	0.946
2028.08	0.9489
2037.44	0.953
2046.8	0.954
2056.16	0.952
2065.52	0.949
2074.89	0.9343
2084.25	0.931
2093.61	0.9339
2102.97	0.9369
2112.33	0.9469
2121.69	0.9538
2131.05	0.959
2140.41	0.9574
2149.77	0.954
2159.13	0.956
2168.49	0.956
2177.85	0.957
2187.21	0.957
2196.57	0.959
2205.93	0.96
2215.29	0.96
2224.65	0.959
2234.01	0.957
2243.37	0.959
2252.73	0.9627
2262.09	0.966
2271.45	0.966
2280.81	0.963
2290.17	0.962
2299.53	0.96
2308.89	0.959
2318.26	0.9582
2327.62	0.969
2336.98	0.963
2346.34	0.965
2355.7	0.965
2365.06	0.962
2374.42	0.964
2383.78	0.963
2393.14	0.962
2402.5	0.9595
2411.86	0.957
2421.22	0.957
2430.58	0.957
2439.94	0.956
2449.3	0.956
2458.66	0.953
2468.02	0.949
2477.38	0.949
2486.74	0.953
2496.1	0.9563
2505.46	0.9607
2514.82	0.965
2524.18	0.966
2533.54	0.965
2542.9	0.963
2552.27	0.965
2561.63	0.966
2570.99	0.968
2580.35	0.9675
2589.71	0.9616
2599.07	0.957
2608.43	0.957
2617.79	0.959
2627.15	0.96
2636.51	0.96
2645.87	0.96
2655.23	0.959
2664.59	0.957
2673.95	0.956
2683.31	0.954
2692.67	0.954
2702.03	0.954
2711.39	0.953
2720.75	0.953
2730.11	0.9519
2739.47	0.949
2748.83	0.947
2758.19	0.947
2767.55	0.946
2776.91	0.946
2786.27	0.946
2795.64	0.946
2805	0.944
2814.36	0.9401
2823.72	0.937
2833.08	0.9331
2842.44	0.931
2851.8	0.9222
2861.16	0.9141
2870.52	0.9043
2879.88	0.8646
2889.24	0.832
2898.6	0.8122
2907.96	0.7906
2917.32	0.7792
2926.68	0.7732
2936.04	0.7451
2945.4	0.6786
2954.76	0.6316
2964.12	0.6253
2973.48	0.608
2982.84	0.4756
2992.2	0.4066
3001.56	0.3286
3010.92	0.533
3020.28	0.6618
3029.64	0.8005
3039.01	0.8755
3048.37	0.889
3057.73	0.8956
3067.09	0.9032
3076.45	0.9146
3085.81	0.9246
3095.17	0.931
3104.53	0.934
3113.89	0.9375
3123.25	0.941
3132.61	0.942
3141.97	0.942
3151.33	0.943
3160.69	0.944
3170.05	0.944
3179.41	0.944
3188.77	0.943
3198.13	0.943
3207.49	0.943
3216.85	0.944
3226.21	0.946
3235.57	0.946
3244.93	0.9464
3254.29	0.947
3263.65	0.9477
3273.01	0.949
3282.38	0.949
3291.74	0.949
3301.1	0.949
3310.46	0.949
3319.82	0.949
3329.18	0.949
3338.54	0.949
3347.9	0.949
3357.26	0.949
3366.62	0.947
3375.98	0.949
3385.34	0.95
3394.7	0.95
3404.06	0.946
3413.42	0.946
3422.78	0.946
3432.14	0.946
3441.5	0.946
3450.86	0.946
3460.22	0.946
3469.58	0.946
3478.94	0.9439
3488.3	0.9359
3497.66	0.9198
3507.02	0.904
3516.38	0.908
3525.75	0.925
3535.11	0.9429
3544.47	0.947
3553.83	0.949
3563.19	0.947
3572.55	0.947
3581.91	0.947
3591.27	0.947
3600.63	0.947
3609.99	0.947
3619.35	0.947
3628.71	0.946
3638.07	0.946
3647.43	0.946
3656.79	0.946
3666.15	0.946
3675.51	0.9444
3684.87	0.943
3694.23	0.943
3703.59	0.944
3712.95	0.946
3722.31	0.946
3731.67	0.946
3741.03	0.944
3750.39	0.943
3759.76	0.9461
3769.12	0.947
3778.48	0.947
