Infrared Spectrum: Ethyl Acetate
Formula: C 4 H 8 O 2
CAS: 141-78-6
State: gas
Origin: Sadtler Research Labs Under US-EPA Contract
1/CM	ABSORBANCE
450	0.0183508
462	0.0109745
474	0.00953523
486	0.00647676
498	0.00737631
510	0.0152923
522	0.00863568
534	0.0127736
546	0.00629685
558	0.00071964
570	0.0129535
582	0.0124138
594	0.0221289
606	0.0471364
618	0.0503748
630	0.0662069
642	0.0548725
654	0.0158321
666	0.0111544
678	0.00341829
690	0.00485757
702	0.00557721
714	0.00863568
726	0.00989505
738	0.0089955
750	0.0138531
762	0.0187106
774	0.0287856
786	0.0372414
798	0.0354423
810	0.0309445
822	0.0314842
834	0.0417391
846	0.0485757
858	0.0476762
870	0.0302249
882	0.0187106
894	0.0194303
906	0.0404798
918	0.0597301
930	0.0674663
942	0.0471364
954	0.0250075
966	0.01997
978	0.0246477
990	0.0343628
1002	0.0424588
1014	0.057931
1026	0.130075
1038	0.342549
1050	0.536672
1062	0.505727
1074	0.257271
1086	0.189265
1098	0.191784
1110	0.162459
1122	0.0903148
1134	0.0469565
1146	0.0345427
1158	0.0352624
1170	0.0385007
1182	0.0514543
1194	0.103448
1206	0.263208
1218	0.730794
1230	1.59508
1242	1.74819
1254	1.21331
1266	0.394723
1278	0.213913
1290	0.109925
1302	0.114063
1314	0.103268
1326	0.0633283
1338	0.0402998
1350	0.0856372
1362	0.226867
1374	0.393823
1386	0.372414
1398	0.144468
1410	0.0901349
1422	0.0750225
1434	0.07988
1446	0.0877961
1458	0.0955322
1470	0.0975112
1482	0.0850974
1494	0.0581109
1506	0.0349025
1518	0.0237481
1530	0.021949
1542	0.0201499
1554	0.0244678
1566	0.0237481
1578	0.0185307
1590	0.0158321
1602	0.0145727
1614	0.0151124
1626	0.0142129
1638	0.0143928
1650	0.0138531
1662	0.0178111
1674	0.0185307
1686	0.0241079
1698	0.0322039
1710	0.0491154
1722	0.0876162
1734	0.23946
1746	0.662429
1758	1.13541
1770	1.20216
1782	0.583088
1794	0.167136
1806	0.0437181
1818	0.027886
1830	0.0233883
1842	0.021949
1854	0.0197901
1866	0.0156522
1878	0.0163718
1890	0.0154723
1902	0.0138531
1914	0.00971514
1926	0.0071964
1938	0.00629685
1950	0.00575712
1962	0.00557721
1974	0.00485757
1986	0.00467766
1998	0.00665667
2010	0.00953523
2022	0.010075
2034	0.00827586
2046	0.00647676
2058	0.00863568
2070	0.0111544
2082	0.0122339
2094	0.0118741
2106	0.00647676
2118	0.0035982
2130	0.00269865
2142	0.00323838
2154	0.00395802
2166	0.00341829
2178	0.00215892
2190	0.00143928
2202	0.00107946
2214	0.00161919
2226	0.00233883
2238	0.00251874
2250	0.0017991
2262	0.0017991
2274	0.00233883
2286	0.00287856
2298	0.00395802
2310	0.00503748
2322	0.00431784
2334	0.00323838
2346	0.00413793
2358	0.00197901
2370	0.00971514
2382	0.00467766
2394	0.0035982
2406	0.00395802
2418	0.00449775
2430	0.00521739
2442	0.00557721
2454	0.00701649
2466	0.00827586
2478	0.00881559
2490	0.00701649
2502	0.0053973
2514	0.00467766
2526	0.00521739
2538	0.00467766
2550	0.00485757
2562	0.00485757
2574	0.00503748
2586	0.00683658
2598	0.00737631
2610	0.00737631
2622	0.00665667
2634	0.00413793
2646	0.00377811
2658	0.00467766
2670	0.00449775
2682	0.00737631
2694	0.0113343
2706	0.0102549
2718	0.00971514
2730	0.00917541
2742	0.0104348
2754	0.00989505
2766	0.0113343
2778	0.0106147
2790	0.0111544
2802	0.0109745
2814	0.0145727
2826	0.0156522
2838	0.0176312
2850	0.0208696
2862	0.0266267
2874	0.0404798
2886	0.0550525
2898	0.0703448
2910	0.0752024
2922	0.0816791
2934	0.11928
2946	0.154003
2958	0.175412
2970	0.198441
2982	0.274543
2994	0.301529
3006	0.198441
3018	0.12072
3030	0.0647676
3042	0.0429985
3054	0.0350825
3066	0.0311244
3078	0.0253673
3090	0.0215892
3102	0.01997
3114	0.0170915
3126	0.0145727
3138	0.0131334
3150	0.0115142
3162	0.00971514
3174	0.0089955
3186	0.00809595
3198	0.00647676
3210	0.00629685
3222	0.00467766
3234	0.00413793
3246	0.00269865
3258	0.00233883
3270	0.00125937
3282	0.00089955
3294	0.0017991
3306	0.00269865
3318	0.00269865
3330	0.00485757
3342	0.00341829
3354	0.00485757
3366	0.00323838
3378	0.00431784
3390	0.00341829
3402	0.00323838
3414	0.0035982
3426	0.00287856
3438	0.00521739
3450	0.00611694
3462	0.00377811
3474	0.00449775
3486	0.00845577
3498	0.0142129
3510	0.0165517
3522	0.0109745
3534	0.00737631
3546	0.00107946
3558	0.00197901
3570	0.00269865
3582	0.00251874
3594	0.00503748
3606	0.00323838
3618	0.00233883
3630	0.0035982
3642	0.00467766
3654	0.00287856
3666	0.00197901
3678	0.00575712
3690	0.00413793
3702	0.00827586
3714	0.00269865
3726	0.0017991
3738	0.00467766
3750	0.0035982
3762	0.00395802
3774	0.00323838
3786	0.00377811
3798	0.00377811
3810	0.00071964
3822	0.00449775
3834	0.00449775
3846	0.00305847
3858	0.0053973
3870	0.00305847
3882	0.00701649
3894	0.00737631
3906	0.00467766
3918	0.00053973
3930	0.00341829
3942	0.00089955
3954	0.00323838
3966	0.00233883
