Infrared Spectrum: Belta-MERCAPTOPROPIONAMIDE
Formula: C3 H7 N O S
CAS: 763-35-9
State: SOLID(MINERAL OIL MULL)
Melting point: 99-100 C
Class: COBLENTZ
Instrument: Not specified, most likely a prism, grating, or hybrid spectrometer.
Sampling: TRANSMISSION
Resolution: 4
Origin: ARTHUR D. LITTLE, INC.
1/CM	TRANSMITTANCE
539.627	0.205
548.368	0.199
557.11	0.17
565.851	0.154
574.592	0.154
583.333	0.154
592.075	0.154
600.816	0.155
609.557	0.154
618.298	0.154
627.04	0.152
635.781	0.157
644.522	0.165
653.263	0.18
662.005	0.193
670.746	0.196
679.487	0.199
688.228	0.203
696.97	0.221
705.711	0.253
714.452	0.31
723.194	0.374
731.935	0.427
740.676	0.467
749.417	0.518
758.159	0.545
766.9	0.554
775.641	0.547
784.382	0.531
793.124	0.497
801.865	0.489
810.606	0.528
819.347	0.589
828.089	0.622
836.83	0.618
845.571	0.606
854.313	0.63
863.054	0.622
871.795	0.572
880.536	0.521
889.278	0.564
898.019	0.622
906.76	0.655
915.501	0.688
924.243	0.701
932.984	0.71
941.725	0.711
950.466	0.707
959.208	0.703
967.949	0.697
976.69	0.694
985.431	0.688
994.173	0.671
1002.91	0.652
1011.66	0.624
1020.4	0.606
1029.14	0.63
1037.88	0.625
1046.62	0.63
1055.36	0.627
1064.1	0.622
1072.84	0.608
1081.59	0.583
1090.33	0.545
1099.07	0.502
1107.81	0.426
1116.55	0.294
1125.29	0.227
1134.03	0.302
1142.77	0.401
1151.52	0.41
1160.26	0.481
1169	0.505
1177.74	0.505
1186.48	0.478
1195.22	0.448
1203.96	0.372
1212.7	0.269
1221.45	0.276
1230.19	0.395
1238.93	0.384
1247.67	0.372
1256.41	0.344
1265.15	0.31
1273.89	0.291
1282.63	0.24
1291.38	0.17
1300.12	0.164
1308.86	0.283
1317.6	0.307
1326.34	0.288
1335.08	0.279
1343.82	0.272
1352.56	0.257
1361.31	0.222
1370.05	0.212
1378.79	0.205
1387.53	0.168
1396.27	0.122
1405.01	0.093
1413.75	0.097
1422.49	0.131
1431.24	0.139
1439.98	0.165
1448.72	0.202
1457.46	0.219
1466.2	0.263
1474.94	0.32
1483.68	0.334
1492.42	0.342
1501.17	0.339
1509.91	0.339
1518.65	0.336
1527.39	0.331
1536.13	0.321
1544.87	0.307
1553.61	0.275
1562.35	0.26
1571.1	0.234
1579.84	0.203
1588.58	0.173
1597.32	0.145
1606.06	0.12
1614.8	0.112
1623.54	0.116
1632.28	0.119
1641.03	0.116
1649.77	0.109
1658.51	0.109
1667.25	0.119
1675.99	0.138
1684.73	0.151
1693.47	0.18
1702.22	0.208
1710.96	0.275
1719.7	0.349
1728.44	0.42
1737.18	0.461
1745.92	0.496
1754.66	0.541
1763.4	0.579
1772.15	0.614
1780.89	0.655
1789.63	0.688
1798.37	0.729
1807.11	0.74
1815.85	0.762
1824.59	0.777
1833.33	0.786
1842.08	0.791
1850.82	0.797
1859.56	0.799
1868.3	0.802
1877.04	0.807
1885.78	0.803
1894.52	0.803
1903.26	0.812
1912.01	0.822
1920.75	0.829
1929.49	0.835
1938.23	0.841
1946.97	0.847
1955.71	0.852
1964.45	0.858
1973.19	0.864
1981.94	0.87
1990.68	0.88
1999.42	0.89
2008.16	0.901
2016.9	0.911
2025.64	0.921
2034.38	0.931
2043.12	0.943
2051.87	0.954
2060.61	0.966
2069.35	0.979
2078.09	0.991
2086.83	1.004
2095.57	1.004
2104.31	0.998
2113.05	0.985
2121.8	0.975
2130.54	0.96
2139.28	0.962
2148.02	0.973
2156.76	0.978
2165.5	0.981
2174.24	0.982
2182.98	0.983
2191.73	0.981
2200.47	0.976
2209.21	0.972
2217.95	0.967
2226.69	0.965
2235.43	0.959
2244.17	0.95
2252.91	0.938
2261.66	0.924
2270.4	0.908
2279.14	0.905
2287.88	0.911
2296.62	0.921
2305.36	0.93
2314.1	0.934
2322.84	0.934
2331.59	0.931
2340.33	0.928
2349.07	0.927
2357.81	0.924
2366.55	0.928
2375.29	0.935
2384.03	0.934
2392.77	0.931
2401.52	0.927
2410.26	0.921
2419	0.912
2427.74	0.895
2436.48	0.854
2445.22	0.88
2453.96	0.879
2462.71	0.873
2471.45	0.864
2480.19	0.857
2488.93	0.852
2497.67	0.848
2506.41	0.844
2515.15	0.838
2523.89	0.828
2532.64	0.812
2541.38	0.796
2550.12	0.754
2558.86	0.743
2567.6	0.78
2576.34	0.815
2585.08	0.838
2593.82	0.841
2602.57	0.842
2611.31	0.842
2620.05	0.834
2628.79	0.826
2637.53	0.822
2646.27	0.822
2655.01	0.818
2663.75	0.81
2672.5	0.806
2681.24	0.8
2689.98	0.784
2698.72	0.77
2707.46	0.758
2716.2	0.739
2724.94	0.723
2733.68	0.716
2742.43	0.701
2751.17	0.681
2759.91	0.665
2768.65	0.631
2777.39	0.604
2786.13	0.541
2794.87	0.48
2803.61	0.471
2812.36	0.491
2821.1	0.529
2829.84	0.512
2838.58	0.427
2847.32	0.311
2856.06	0.27
2864.8	0.292
2873.54	0.318
2882.29	0.339
2891.03	0.305
2899.77	0.251
2908.51	0.211
2917.25	0.173
2925.99	0.168
2934.73	0.183
2943.47	0.197
2952.22	0.213
2960.96	0.238
2969.7	0.304
2978.44	0.375
2987.18	0.448
2995.92	0.483
3004.66	0.502
3013.4	0.508
3022.15	0.493
3030.89	0.481
3039.63	0.457
3048.37	0.438
3057.11	0.403
3065.85	0.381
3074.59	0.356
3083.33	0.333
3092.08	0.31
3100.82	0.278
3109.56	0.254
3118.3	0.224
3127.04	0.2
3135.78	0.18
3144.52	0.163
3153.26	0.151
3162.01	0.144
3170.75	0.141
3179.49	0.139
3188.23	0.138
3196.97	0.136
3205.71	0.139
3214.45	0.142
3223.2	0.147
3231.94	0.154
3240.68	0.155
3249.42	0.16
3258.16	0.16
3266.9	0.155
3275.64	0.151
3284.38	0.147
3293.13	0.142
3301.87	0.139
3310.61	0.142
3319.35	0.141
3328.09	0.133
3336.83	0.135
3345.57	0.135
3354.31	0.133
3363.06	0.135
3371.8	0.141
3380.54	0.142
3389.28	0.147
3398.02	0.168
3406.76	0.197
3415.5	0.227
3424.24	0.286
3432.99	0.352
3441.73	0.426
3450.47	0.506
3459.21	0.582
3467.95	0.646
3476.69	0.701
3485.43	0.742
3494.17	0.765
3502.92	0.793
3511.66	0.809
3520.4	0.828
3529.14	0.836
3537.88	0.841
3546.62	0.842
3555.36	0.842
3564.1	0.842
3572.85	0.841
3581.59	0.841
3590.33	0.838
3599.07	0.845
