Infrared Spectrum: Hexane
Formula: C 6 H 14
CAS: 110-54-3
State: gas
Origin: Sadtler Research Labs Under US-EPA Contract
1/CM	ABSORBANCE
450	0.0015648
462	0.00321196
474	0.00131773
486	0.00296489
498	0.00691807
510	0.00362375
522	0.00164716
534	0.00263546
546	0.00617685
558	0.00337668
570	0.00584742
582	0.00123537
594	0.00658864
606	0.00329432
618	0.00271781
630	0.00205895
642	0.00469441
654	0.00304725
666	0.00222367
678	0.00263546
690	0.00700043
702	0.00815344
714	0.0141656
726	0.0164716
738	0.0148244
750	0.0108713
762	0.0100477
774	0.00848287
786	0.00732986
798	0.00798873
810	0.00592978
822	0.00502384
834	0.00683571
846	0.00551799
858	0.00560034
870	0.00658864
882	0.0102124
894	0.0122713
906	0.00963589
918	0.00700043
930	0.00469441
942	0.00461205
954	0.00329432
966	0.00378847
978	0.0041179
990	0.00609449
1002	0.00502384
1014	0.00625921
1026	0.00716515
1038	0.00955353
1050	0.00831816
1062	0.00856523
1074	0.00584742
1086	0.00436497
1098	0.00337668
1110	0.00345904
1122	0.0041179
1134	0.00708279
1146	0.00584742
1158	0.00378847
1170	0.00230602
1182	0.00288253
1194	0.00321196
1206	0.00403554
1218	0.00494148
1230	0.00617685
1242	0.00716515
1254	0.00683571
1266	0.00601213
1278	0.00765929
1290	0.0122713
1302	0.0124361
1314	0.0115301
1326	0.0125184
1338	0.0186953
1350	0.0196836
1362	0.0192718
1374	0.0340962
1386	0.0456263
1398	0.032202
1410	0.0175423
1422	0.0152362
1434	0.0277546
1446	0.0563329
1458	0.0927351
1470	0.0973472
1482	0.0667923
1494	0.0318725
1506	0.0149892
1518	0.00815344
1530	0.00708279
1542	0.00617685
1554	0.0051062
1566	0.00370611
1578	0.0041179
1590	0.00403554
1602	0.00354139
1614	0.00321196
1626	0.00345904
1638	0.00354139
1650	0.0025531
1662	0.00247074
1674	0.00296489
1686	0.00345904
1698	0.00189423
1710	0.00197659
1722	0.00164716
1734	0.00280017
1746	0.00123537
1758	0.00131773
1770	0.00140009
1782	0.00230602
1794	0.0015648
1806	0.00123537
1818	0.000576506
1830	0.00140009
1842	0.000658864
1854	0.00107065
1866	0.00107065
1878	0.00164716
1890	0.00115301
1902	0.000576506
1914	0.000658864
1926	0.00164716
1938	0.00082358
1950	0.000494148
1962	0.000494148
1974	0.00107065
1986	0.000988296
1998	0.000576506
2010	0.000988296
2022	0.00197659
2034	0.00247074
2046	0.00123537
2058	0.0015648
2070	0.00140009
2082	0.00123537
2094	0.000494148
2106	0.000905938
2118	0.00082358
2130	0.00181188
2142	0.000905938
2154	0.00131773
2166	0.00140009
2178	0.00214131
2190	0.00123537
2202	0.00164716
2214	0.00140009
2226	0.0015648
2238	0.000741222
2250	0.000658864
2262	0.00148244
2274	0.00214131
2286	0.00140009
2298	0.00115301
2310	0.00197659
2322	0.00189423
2334	0.00189423
2346	0.0015648
2358	0.00403554
2370	0.00304725
2382	0.0025531
2394	0.00148244
2406	0.00197659
2418	0.00197659
2430	0.00148244
2442	0.00041179
2454	0.00148244
2466	0.000905938
2478	0.00123537
2490	0.00041179
2502	0.00107065
2514	0.00148244
2526	0.00164716
2538	0.000988296
2550	0.0015648
2562	0.00214131
2574	0.00370611
2586	0.0041179
2598	0.0051062
2610	0.0056827
2622	0.00625921
2634	0.0056827
2646	0.00617685
2658	0.00774165
2670	0.00856523
2682	0.0098006
2694	0.00889466
2706	0.0092241
2718	0.0092241
2730	0.0118596
2742	0.0153186
2754	0.0163069
2766	0.0139185
2778	0.0153186
2790	0.0196012
2802	0.0262722
2814	0.0314608
2826	0.0452969
2838	0.0806285
2850	0.167763
2862	0.292783
2874	0.395483
2886	0.396142
2898	0.346315
2910	0.418049
2922	0.63951
2934	0.795002
2946	0.782072
2958	0.758929
2970	0.776636
2982	0.513996
2994	0.183164
3006	0.0770871
3018	0.0443086
3030	0.0354139
3042	0.0305548
3054	0.0250368
3066	0.0189423
3078	0.0160598
3090	0.0143303
3102	0.0146597
3114	0.0116125
3126	0.0102124
3138	0.00856523
3150	0.0098006
3162	0.00815344
3174	0.00815344
3186	0.00716515
3198	0.0082358
3210	0.00576506
3222	0.00428262
3234	0.00296489
3246	0.00354139
3258	0.00271781
3270	0.00189423
3282	0.00131773
3294	0.00329432
3306	0.00280017
3318	0.00140009
3330	0.00140009
3342	0.00288253
3354	0.00296489
3366	0.00148244
3378	0.00214131
3390	0.00263546
3402	0.00362375
3414	0.00189423
3426	0.00123537
3438	0.0015648
3450	0.00247074
3462	0.000658864
3474	0.0015648
3486	0.00189423
3498	0.00247074
3510	0.000741222
3522	0.000494148
3534	0.00197659
3546	0.00247074
3558	0.00107065
3570	0.00181188
3582	0.00189423
3594	0.00205895
3606	0.00214131
3618	0.00205895
3630	0.00222367
3642	0.00345904
3654	0.00238838
3666	0.00247074
3678	0.00263546
3690	0.00280017
3702	0.00280017
3714	0.00115301
3726	0.00230602
3738	0.00271781
3750	0.00288253
3762	0.00263546
3774	0.0031296
3786	0.00370611
3798	0.00304725
3810	0.00296489
3822	0.0031296
3834	0.00362375
3846	0.00280017
3858	0.00222367
3870	0.00345904
3882	0.00395318
3894	0.00420026
3906	0.00370611
3918	0.00378847
3930	0.00362375
3942	0.00280017
3954	0.00337668
3966	0.00387083
