Infrared Spectrum: n-HEXANE
Formula: C6 H14
CAS: 110-54-3
State: GAS (12 mmHg, N2 ADDED, TOTAL PRESSURE 600 mmHg)
Class: COBLENTZ
Instrument: BECKMAN IR-9 (GRATING)
Instrument parameters: ORDER CHANGES: 670, 1200, 2000 CM^-^1
Sampling: TRANSMISSION
Path length: 10 CM
Resolution: 2
Origin: DOW CHEMICAL COMPANY
1/CM	TRANSMITTANCE
200	0
209.836	0
219.672	0
229.508	0
239.344	0
249.18	0.001
259.016	0.001
268.852	0
278.689	0.001
288.525	0
298.361	0.001
308.197	0.011
318.033	0.026
327.869	0.041
337.705	0.0669
347.541	0.114
357.377	0.181
367.213	0.252
377.049	0.327
386.885	0.387
396.721	0.456
406.557	0.5309
416.393	0.597
426.23	0.661
436.066	0.704
445.902	0.749
455.738	0.78
465.574	0.803
475.41	0.831
485.246	0.846
495.082	0.87
504.918	0.853
514.754	0.876
524.59	0.883
534.426	0.874
544.262	0.88
554.098	0.897
563.934	0.891
573.771	0.88
583.607	0.883
593.443	0.891
603.279	0.891
613.115	0.887
622.951	0.88
632.787	0.882
642.623	0.885
652.459	0.906
662.295	0.9209
672.131	0.917
681.967	0.928
691.803	0.926
701.639	0.908
711.475	0.889
721.312	0.855
731.148	0.853
740.984	0.878
750.82	0.897
760.656	0.898
770.492	0.904
780.328	0.917
790.164	0.921
800	0.919
809.836	0.921
819.672	0.923
829.508	0.926
839.344	0.93
849.18	0.934
859.016	0.926
868.853	0.913
878.689	0.898
888.525	0.88
898.361	0.876
908.197	0.889
918.033	0.898
927.869	0.919
937.705	0.934
947.541	0.938
957.377	0.932
967.213	0.928
977.049	0.915
986.885	0.91
996.721	0.906
1006.56	0.91
1016.39	0.904
1026.23	0.902
1036.07	0.9
1045.9	0.9
1055.74	0.895
1065.57	0.876
1075.41	0.88
1085.25	0.898
1095.08	0.915
1104.92	0.923
1114.75	0.921
1124.59	0.913
1134.43	0.897
1144.26	0.883
1154.1	0.883
1163.93	0.91
1173.77	0.917
1183.61	0.88
1193.44	0.928
1203.28	0.923
1213.11	0.913
1222.95	0.906
1232.79	0.908
1242.62	0.906
1252.46	0.891
1262.3	0.902
1272.13	0.91
1281.97	0.904
1291.8	0.882
1301.64	0.87
1311.48	0.874
1321.31	0.885
1331.15	0.889
1340.98	0.846
1350.82	0.831
1360.66	0.829
1370.49	0.803
1380.33	0.717
1390.16	0.646
1400	0.7019
1409.84	0.827
1419.67	0.88
1429.51	0.874
1439.34	0.831
1449.18	0.6922
1459.02	0.5541
1468.85	0.44
1478.69	0.449
1488.52	0.5779
1498.36	0.7369
1508.2	0.852
1518.03	0.895
1527.87	0.902
1537.71	0.908
1547.54	0.904
1557.38	0.911
1567.21	0.911
1577.05	0.915
1586.89	0.923
1596.72	0.921
1606.56	0.919
1616.39	0.915
1626.23	0.913
1636.07	0.917
1645.9	0.917
1655.74	0.915
1665.57	0.919
1675.41	0.919
1685.25	0.915
1695.08	0.919
1704.92	0.911
1714.75	0.919
1724.59	0.911
1734.43	0.897
1744.26	0.893
1754.1	0.906
1763.93	0.923
1773.77	0.923
1783.61	0.926
1793.44	0.925
1803.28	0.928
1813.11	0.93
1822.95	0.93
1832.79	0.932
1842.62	0.93
1852.46	0.932
1862.3	0.93
1872.13	0.932
1881.97	0.932
1891.8	0.926
1901.64	0.925
1911.48	0.925
1921.31	0.928
1931.15	0.93
1940.98	0.93
1950.82	0.93
1960.66	0.928
1970.49	0.926
1980.33	0.925
1990.16	0.923
2000	0.926
2009.84	0.93
2019.67	0.93
2029.51	0.924
2039.34	0.921
2049.18	0.9219
2059.02	0.925
2068.85	0.926
2078.69	0.9278
2088.52	0.93
2098.36	0.93
2108.2	0.932
2118.03	0.932
2127.87	0.932
2137.71	0.93
2147.54	0.928
2157.38	0.928
2167.21	0.926
2177.05	0.9252
2186.89	0.923
2196.72	0.923
2206.56	0.923
2216.39	0.9246
2226.23	0.925
2236.07	0.928
2245.9	0.928
2255.74	0.928
2265.57	0.926
2275.41	0.925
2285.25	0.925
2295.08	0.9257
2304.92	0.9305
2314.75	0.9375
2324.59	0.9439
2334.43	0.953
2344.26	0.9526
2354.1	0.9504
2363.93	0.949
2373.77	0.9409
2383.61	0.9288
2393.44	0.9197
2403.28	0.9233
2413.12	0.9217
2422.95	0.917
2432.79	0.919
2442.62	0.923
2452.46	0.923
2462.3	0.9251
2472.13	0.9272
2481.97	0.928
2491.8	0.928
2501.64	0.928
2511.48	0.926
2521.31	0.926
2531.15	0.925
2540.98	0.923
2550.82	0.923
2560.66	0.923
2570.49	0.921
2580.33	0.915
2590.16	0.907
2600	0.904
2609.84	0.902
2619.67	0.9
2629.51	0.897
2639.34	0.897
2649.18	0.895
2659.02	0.8911
2668.85	0.885
2678.69	0.8802
2688.52	0.874
2698.36	0.876
2708.2	0.8812
2718.03	0.889
2727.87	0.8812
2737.71	0.8599
2747.54	0.8418
2757.38	0.8431
2767.21	0.8655
2777.05	0.874
2786.89	0.8637
2796.72	0.845
2806.56	0.8268
2816.39	0.8087
2826.23	0.7786
2836.07	0.7334
2845.9	0.5503
2855.74	0.3329
2865.57	0.1418
2875.41	0.0726
2885.25	0.0373
2895.08	0.057
2904.92	0.1505
2914.75	0.0915
2924.59	0
2934.43	0
2944.26	0
2954.1	0
2963.93	0
2973.77	0
2983.61	0.0017
2993.44	0.1858
3003.28	0.5194
3013.12	0.734
3022.95	0.778
3032.79	0.7975
3042.62	0.8033
3052.46	0.8185
3062.3	0.8411
3072.13	0.8542
3081.97	0.8673
3091.8	0.8772
3101.64	0.882
3111.48	0.883
3121.31	0.887
3131.15	0.8881
3140.98	0.889
3150.82	0.887
3160.66	0.885
3170.49	0.884
3180.33	0.882
3190.16	0.878
3200	0.88
3209.84	0.888
3219.67	0.895
3229.51	0.9049
3239.34	0.911
3249.18	0.9139
3259.02	0.913
3268.85	0.913
3278.69	0.915
3288.53	0.9178
3298.36	0.919
3308.2	0.919
3318.03	0.917
3327.87	0.915
3337.71	0.915
3347.54	0.9157
3357.38	0.9135
3367.21	0.906
3377.05	0.9108
3386.89	0.9157
3396.72	0.917
3406.56	0.917
3416.39	0.915
3426.23	0.915
3436.07	0.915
3445.9	0.913
3455.74	0.9146
3465.57	0.915
3475.41	0.915
3485.25	0.915
3495.08	0.915
3504.92	0.917
3514.75	0.917
3524.59	0.917
3534.43	0.919
3544.26	0.919
3554.1	0.919
3563.93	0.9174
3573.77	0.9176
3583.61	0.9174
3593.44	0.9203
3603.28	0.921
3613.12	0.919
3622.95	0.917
3632.79	0.915
3642.62	0.913
3652.46	0.913
3662.3	0.911
3672.13	0.911
3681.97	0.9112
3691.8	0.913
3701.64	0.915
3711.48	0.913
3721.31	0.915
3731.15	0.917
3740.98	0.915
3750.82	0.915
3760.66	0.913
3770.49	0.911
3780.33	0.91
3790.16	0.911
3800	0.911
3809.84	0.908
3819.67	0.91
3829.51	0.913
3839.34	0.913
3849.18	0.915
3859.02	0.915
3868.85	0.913
3878.69	0.913
3888.53	0.911
3898.36	0.9101
3908.2	0.9092
3918.03	0.908
3927.87	0.9088
3937.71	0.91
3947.54	0.91
3957.38	0.91
3967.21	0.91
3977.05	0.908
