Infrared Spectrum: 2-Butene, 2-methyl-
Formula: C 5 H 10
CAS: 513-35-9
State: gas
Origin: Sadtler Research Labs Under US-EPA Contract
1/CM	ABSORBANCE
450	0.0167563
462	0.015233
474	0.00465951
486	0.00250897
498	0.0030466
510	0.00582439
522	0.015681
534	0.0154122
546	0.00134409
558	0.00582439
570	0.00268818
582	0.0030466
594	0.00224015
606	0.0015233
618	0.00349463
630	0.00268818
642	0.00403227
654	0.00376345
666	0.00555557
678	0.0102151
690	0.0110215
702	0.00609321
714	0.00546597
726	0.00689966
738	0.0107527
750	0.0162187
762	0.0280467
774	0.0563622
786	0.0826167
798	0.155556
810	0.100448
822	0.0660396
834	0.0237456
846	0.0167563
858	0.0199821
870	0.0272402
882	0.0237456
894	0.0242832
906	0.0268818
918	0.0293012
930	0.0376345
942	0.0482976
954	0.04776
966	0.0447134
978	0.0378137
990	0.0419356
1002	0.0379929
1014	0.0370073
1026	0.0379929
1038	0.0450718
1050	0.0454302
1062	0.0501794
1074	0.0524195
1086	0.0686382
1098	0.102599
1110	0.109409
1122	0.0882619
1134	0.0446238
1146	0.0337815
1158	0.0297492
1170	0.0288531
1182	0.0301076
1194	0.0396059
1206	0.0533156
1218	0.0568102
1230	0.057079
1242	0.0422044
1254	0.035484
1266	0.0288531
1278	0.0243728
1290	0.0241936
1302	0.0263442
1314	0.0321686
1326	0.0428317
1338	0.0516131
1350	0.0672045
1362	0.103047
1374	0.168997
1386	0.188979
1398	0.141309
1410	0.0800182
1422	0.0821687
1434	0.114248
1446	0.16595
1458	0.156004
1470	0.147043
1482	0.098029
1494	0.0640683
1506	0.0497313
1518	0.0451614
1530	0.0447134
1542	0.0440862
1554	0.0408603
1566	0.0333334
1578	0.0292116
1590	0.0284947
1602	0.027509
1614	0.0248209
1626	0.0196237
1638	0.0160395
1650	0.0155018
1662	0.0185484
1674	0.0203406
1686	0.0205198
1698	0.0169355
1710	0.014785
1722	0.0145162
1734	0.0172044
1746	0.0168459
1758	0.0162187
1770	0.0140681
1782	0.00967745
1794	0.00958784
1806	0.01138
1818	0.0124552
1830	0.0133513
1842	0.0109319
1854	0.00797493
1866	0.00555557
1878	0.00439069
1890	0.00403227
1902	0.00394266
1914	0.00412188
1926	0.00224015
1938	0.00358424
1950	0.00403227
1962	0.00403227
1974	0.00421148
1986	0.00313621
1998	0.00313621
2010	0.00206094
2022	0.00277779
2034	0.00224015
2046	0.00215054
2058	0.00179212
2070	0.00170251
2082	0.00170251
2094	0.00125448
2106	0.000985666
2118	0.0015233
2130	0.00215054
2142	0.00170251
2154	0.00277779
2166	0.00125448
2178	0.000806454
2190	0.000268818
2202	0.000716848
2214	0.000537636
2226	0.000806454
2238	0.000806454
2250	0.00089606
2262	0.000716848
2274	0.00116488
2286	0.00215054
2298	0.00224015
2310	0.00340503
2322	0.00358424
2334	0.00286739
2346	0.00125448
2358	0.00286739
2370	0
2382	0.00089606
2394	0.00340503
2406	0.00465951
2418	0.00465951
2430	0.00519715
2442	0.00564518
2454	0.00519715
2466	0.00492833
2478	0.00430109
2490	0.00456991
2502	0.00456991
2514	0.00367385
2526	0.00322582
2538	0.00322582
2550	0.00268818
2562	0.00286739
2574	0.00340503
2586	0.00322582
2598	0.00349463
2610	0.00313621
2622	0.00259857
2634	0.0030466
2646	0.00322582
2658	0.00456991
2670	0.00483872
2682	0.00645163
2694	0.00905021
2706	0.0124552
2718	0.0193549
2730	0.0317205
2742	0.0407707
2754	0.0431901
2766	0.0312725
2778	0.0246416
2790	0.0272402
2802	0.0375449
2814	0.0509858
2826	0.0696239
2838	0.10233
2850	0.190323
2862	0.379661
2874	0.503227
2886	0.575629
2898	0.542206
2910	0.624643
2922	0.780916
2934	0.843372
2946	0.704303
2958	0.526704
2970	0.581095
2982	0.594267
2994	0.558693
3006	0.417833
3018	0.33199
3030	0.288621
3042	0.242653
3054	0.170072
3066	0.105556
3078	0.0753586
3090	0.0533156
3102	0.0423836
3114	0.0349463
3126	0.0276883
3138	0.01819
3150	0.0144266
3162	0.00967745
3174	0.00806454
3186	0.00761651
3198	0.00672045
3210	0.00564518
3222	0.00367385
3234	0.00403227
3246	0.00331542
3258	0.0030466
3270	0.00286739
3282	0.00403227
3294	0.00241936
3306	0.00286739
3318	0.00215054
3330	0.00224015
3342	0.00206094
3354	0.00430109
3366	0.00510754
3378	0.00546597
3390	0.00412188
3402	0.002957
3414	0.00412188
3426	0.00232976
3438	0.00232976
3450	0.002957
3462	0.0030466
3474	0.00197133
3486	0.00197133
3498	0.00349463
3510	0.00474912
3522	0.00403227
3534	0.00250897
3546	0.00313621
3558	8.9606e-05
3570	0.00241936
3582	0.00385306
3594	0.0015233
3606	0.00358424
3618	0.0015233
3630	0.00394266
3642	0.00698927
3654	0.0060036
3666	0.0060036
3678	0.00394266
3690	0.00501794
3702	0.00349463
3714	0.00421148
3726	0.00134409
3738	0.00439069
3750	0.002957
3762	0.00358424
3774	0.00358424
3786	0.00322582
3798	0.00439069
3810	0.00474912
3822	0.002957
3834	0.00618281
3846	0.00546597
3858	0.00474912
3870	0.00492833
3882	0.00582439
3894	0.00501794
3906	0.00501794
3918	0.00681006
3930	0.00528675
3942	0.00654124
3954	0.00698927
3966	0.00645163
