Infrared Spectrum: Dibromoacetic acid
Formula: C 2 H 2 Br 2 O 2
CAS: 631-64-1
State: gas
Origin: EPA-IR VAPOR PHASE LIBRARY
1/CM	ABSORBANCE
549.8	0.007266
559.445	0.009296
569.09	0.011156
578.734	0.016196
588.379	0.029576
598.024	0.050316
607.669	0.050946
617.313	0.059386
626.958	0.053246
636.603	0.030596
646.248	0.023436
655.893	0.023826
665.537	0.018686
675.182	0.012216
684.827	0.011376
694.472	0.012056
704.116	0.012686
713.761	0.010746
723.406	0.008546
733.051	0.008246
742.695	0.009216
752.34	0.009706
761.985	0.009586
771.63	0.009416
781.275	0.008766
790.919	0.005706
800.564	0.003306
810.209	0.002706
819.854	0.002286
829.498	0.002156
839.143	0.001816
848.788	0.001886
858.433	0.002426
868.078	0.002916
877.722	0.002736
887.367	0.002416
897.012	0.001706
906.657	0.001616
916.301	0.001616
925.946	0.0015384
935.591	0.001666
945.236	0.0014959
954.88	0.0013951
964.525	0.0013085
974.17	0.0012522
983.815	0.0014141
993.46	0.0013931
1003.1	0.001836
1012.75	0.002216
1022.39	0.002496
1032.04	0.002666
1041.68	0.003616
1051.33	0.005056
1060.97	0.006746
1070.62	0.012146
1080.26	0.024626
1089.91	0.049526
1099.55	0.066046
1109.2	0.051126
1118.84	0.031296
1128.49	0.033066
1138.13	0.042796
1147.78	0.056766
1157.42	0.056296
1167.07	0.035566
1176.71	0.018036
1186.36	0.011466
1196	0.009476
1205.64	0.009996
1215.29	0.011726
1224.93	0.012846
1234.58	0.011246
1244.22	0.009346
1253.87	0.007966
1263.51	0.007766
1273.16	0.008316
1282.8	0.009696
1292.45	0.012466
1302.09	0.016826
1311.74	0.022616
1321.38	0.024266
1331.03	0.018136
1340.67	0.013966
1350.32	0.016856
1359.96	0.020426
1369.61	0.017306
1379.25	0.008826
1388.9	0.003646
1398.54	0.002216
1408.18	0.001796
1417.83	0.001656
1427.47	0.0014836
1437.12	0.001334
1446.76	0.0010989
1456.41	0.0010379
1466.05	0.0009303
1475.7	0.0010158
1485.34	0.0010109
1494.99	0.0010464
1504.63	0.0010945
1514.28	0.0010359
1523.92	0.0009896
1533.57	0.0009651
1543.21	0.0010662
1552.86	0.0011523
1562.5	0.0014724
1572.15	0.0016113
1581.79	0.0014591
1591.44	0.0012467
1601.08	0.001003
1610.73	0.0008805
1620.37	0.0008859
1630.01	0.0009721
1639.66	0.0010797
1649.3	0.0011517
1658.95	0.0010022
1668.59	0.0009512
1678.24	0.0010297
1687.88	0.0013049
1697.53	0.001776
1707.17	0.002786
1716.82	0.004526
1726.46	0.007996
1736.11	0.013206
1745.75	0.019526
1755.4	0.028476
1765.04	0.047296
1774.69	0.078766
1784.33	0.091296
1793.98	0.070976
1803.62	0.060816
1813.27	0.045556
1822.91	0.026326
1832.55	0.013016
1842.2	0.006616
1851.84	0.004016
1861.49	0.002456
1871.13	0.001666
1880.78	0.0012887
1890.42	0.0010946
1900.07	0.0010113
1909.71	0.0009623
1919.36	0.0008799
1929	0.0008356
1938.65	0.0008543
1948.29	0.0008627
1957.94	0.0009302
1967.58	0.0010518
1977.23	0.001044
1986.87	0.0011037
1996.52	0.0010791
2006.16	0.001013
2015.81	0.0009932
2025.45	0.0010218
2035.1	0.0009291
2044.74	0.0007596
2054.38	0.00063481
2064.03	0.00070882
2073.67	0.000746
2083.32	0.0007191
2092.96	0.0007505
2102.61	0.0009009
2112.25	0.0008599
2121.9	0.0008481
2131.54	0.0009058
2141.19	0.00069129
2150.83	0.0009376
2160.48	0.0009688
2170.12	0.0010745
2179.77	0.0013147
2189.41	0.0013188
2199.06	0.0012306
2208.7	0.0010946
2218.35	0.0007935
2227.99	0.0007413
2237.64	0.00066773
2247.28	0.0007431
2256.92	0.00067876
2266.57	0.0008735
2276.21	0.0011531
2285.86	0.0014754
2295.5	0.001916
2305.15	0.002636
2314.79	0.003306
2324.44	0.003906
2334.08	0.003616
2343.73	0.003276
2353.37	0.003606
2363.02	0.004886
2372.66	0.004066
2382.31	0.001776
2391.95	0.00068589
2401.6	0.0005593
2411.24	0.0006732
2420.89	0.0007534
2430.53	0.0007876
2440.18	0.0008762
2449.82	0.0009286
2459.47	0.0007914
2469.11	0.0008079
2478.75	0.0008411
2488.4	0.000763
2498.04	0.000754
2507.69	0.00068203
2517.33	0.0005422
2526.98	0.000617381
2536.62	0.0005968
2546.27	0.00049
2555.91	0.0005837
2565.56	0.000435
2575.2	0.00065908
2584.85	0.000391
2594.49	0.000495
2604.14	0.000429
2613.78	0.000439
2623.43	0.0005592
2633.07	0.000376
2642.72	0.000488
2652.36	0.00051
2662.01	0.00061554
2671.65	0.000306
2681.29	0.0005444
2690.94	0.000485
2700.58	0.000509
2710.23	0.000458
2719.87	0.000455
2729.52	0.000466
2739.16	0.000512
2748.81	0.000436
2758.45	0.000377
2768.1	0.000272
2777.74	0.000386
2787.39	0.000401
2797.03	0.00049
2806.68	0.000342
2816.32	0.000332
2825.97	0.000493
2835.61	0.000404
2845.26	0.000495
2854.9	0.000388
2864.55	0.00061339
2874.19	0.00065071
2883.84	0.0005631
2893.48	0.00069934
2903.12	0.0005664
2912.77	0.0007541
2922.41	0.0007766
2932.06	0.00060733
2941.7	0.0008022
2951.35	0.0007992
2960.99	0.0007759
2970.64	0.0008037
2980.28	0.0010702
2989.93	0.00066921
2999.57	0.0009
3009.22	0.0011291
3018.86	0.001393
3028.51	0.001567
3038.15	0.001866
3047.8	0.002176
3057.44	0.0014344
3067.09	0.0008618
3076.73	0.0008842
3086.38	0.0006058
3096.02	0.0008759
3105.67	0.000511
3115.31	0.0005226
3124.95	0.000154
3134.6	0.000412
3144.24	0.000332
3153.89	0.000421
3163.53	0.000165
3173.18	0.000338
3182.82	0.000286
3192.47	0.000246
3202.11	0.000516
3211.76	0
3221.4	0.000458
3231.05	0.000342
3240.69	0.000507
3250.34	0.000465
3259.98	0.000401
3269.63	0.000452
3279.27	0.000299
3288.92	0.000386
3298.56	0.000494
3308.21	0.0005631
3317.85	0.000348
3327.49	0.000404
3337.14	0.000425
3346.78	0.000414
3356.43	0.000303
3366.07	0.000462
3375.72	0.0005
3385.36	0.000292
3395.01	0.000319
3404.65	0.000463
3414.3	0.0005628
3423.94	0.000251
3433.59	0.000491
3443.23	0.00071209
3452.88	0.000477
3462.52	0.00041
3472.17	0.000483
3481.81	0.0009144
3491.46	0.0010258
3501.1	0.001716
3510.75	0.002006
3520.39	0.002786
3530.04	0.003456
3539.68	0.004026
3549.32	0.005746
3558.97	0.012286
3568.61	0.039176
3578.26	0.058596
3587.9	0.043426
3597.55	0.012916
3607.19	0.003756
3616.84	0.002216
3626.48	0.0012762
3636.13	0.0008267
3645.77	0.0007495
3655.42	0.0008905
3665.06	0.00065608
3674.71	0.0005248
3684.35	0.00064388
3694	0.000431
3703.64	0.0005275
3713.29	0.000495
3722.93	0.00070347
3732.58	0.0007884
3742.22	0.0007168
3751.86	0.000497
3761.51	0.000603
3771.15	0.000421
3780.8	0.000437
3790.44	0.000468
3800.09	0.000521
3809.73	0.000327
3819.38	0.000263
3829.02	0.000416
3838.67	0.0005901
3848.31	0.0005823
3857.96	0.000267
3867.6	9.9e-05
3877.25	0.000333
3886.89	0.000329
3896.54	0.000466
3906.18	0.000384
3915.83	0.00025
3925.47	0.000364
3935.12	0.000349
3944.76	0.0003
3954.41	0.000204
3964.05	0.000506
3973.69	0.0004
3983.34	0.00031
3992.98	0.000304
