Infrared Spectrum: CYCLOPROPANE
Formula: C3 H6
CAS: 75-19-4
State: GAS (100 mmHg, N2 ADDED, TOTAL PRESSURE 600 mmHg)
Class: COBLENTZ
Instrument: DOW KBr FOREPRISM-GRATING
Instrument parameters: GRATING: BLAZED AT 3.5, 12.0, 20.0 MICRON, CHANGED AT 5.0, 7.5, 14.9 MICRON
Sampling: TRANSMISSION
Path length: 5 CM CELL
Resolution: 2
Origin: DOW CHEMICAL COMPANY
1/CM	TRANSMITTANCE
462.794	0.918
471.585	0.912
480.376	0.908
489.168	0.904
497.959	0.902
506.75	0.898
515.541	0.894
524.333	0.894
533.124	0.896
541.915	0.902
550.706	0.91
559.498	0.908
568.289	0.912
577.08	0.914
585.871	0.924
594.663	0.926
603.454	0.928
612.245	0.93
621.036	0.936
629.827	0.94
638.619	0.944
647.41	0.952
656.201	0.954
664.992	0.956
673.784	0.958
682.575	0.956
691.366	0.962
700.157	0.966
708.949	0.964
717.74	0.97
726.531	0.978
735.322	0.982
744.113	0.98
752.905	0.984
761.696	0.98
770.487	0.97
779.278	0.944
788.07	0.8801
796.861	0.7771
805.652	0.6111
814.443	0.42
823.235	0.269
832.026	0.1131
840.817	0.077
849.608	0.089
858.4	0.103
867.191	0.027
875.982	0.065
884.773	0.1804
893.564	0.063
902.356	0.053
911.147	0.079
919.938	0.166
928.729	0.392
937.521	0.6499
946.312	0.875
955.103	0.938
963.894	0.96
972.686	0.9181
981.477	0.779
990.268	0.47
999.059	0.1841
1007.85	0.081
1016.64	0.101
1025.43	0.071
1034.22	0.069
1043.02	0.132
1051.81	0.073
1060.6	0.105
1069.39	0.3749
1078.18	0.712
1086.97	0.9139
1095.76	0.962
1104.55	0.984
1113.35	1.003
1122.14	0.992
1130.93	0.986
1139.72	0.98
1148.51	0.97
1157.3	0.974
1166.09	0.976
1174.88	0.98
1183.68	0.984
1192.47	0.982
1201.26	0.984
1210.05	0.986
1218.84	0.988
1227.63	0.99
1236.42	0.988
1245.21	0.982
1254.01	0.978
1262.8	0.974
1271.59	0.966
1280.38	0.96
1289.17	0.962
1297.96	0.964
1306.75	0.96
1315.54	0.962
1324.33	0.964
1333.13	0.96
1341.92	0.96
1350.71	0.964
1359.5	0.96
1368.29	0.96
1377.08	0.962
1385.87	0.97
1394.66	0.936
1403.46	0.8841
1412.25	0.7671
1421.04	0.664
1429.83	0.7
1438.62	0.71
1447.41	0.682
1456.2	0.708
1464.99	0.7669
1473.79	0.853
1482.58	0.896
1491.37	0.942
1500.16	0.956
1508.95	0.96
1517.74	0.966
1526.53	0.964
1535.32	0.964
1544.12	0.96
1552.91	0.96
1561.7	0.958
1570.49	0.96
1579.28	0.958
1588.07	0.958
1596.86	0.93
1605.65	0.954
1614.45	0.954
1623.24	0.946
1632.03	0.932
1640.82	0.938
1649.61	0.948
1658.4	0.952
1667.19	0.95
1675.98	0.95
1684.78	0.946
1693.57	0.93
1702.36	0.9
1711.15	0.867
1719.94	0.819
1728.73	0.775
1737.52	0.755
1746.31	0.759
1755.11	0.765
1763.9	0.857
1772.69	0.819
1781.48	0.789
1790.27	0.839
1799.06	0.878
1807.85	0.902
1816.64	0.914
1825.44	0.914
1834.23	0.91
1843.02	0.908
1851.81	0.896
1860.6	0.801
1869.39	0.759
1878.18	0.65
1886.97	0.503
1895.77	0.3781
1904.56	0.6049
1913.35	0.751
1922.14	0.876
1930.93	0.8352
1939.72	0.936
1948.51	0.936
1957.3	0.94
1966.1	0.94
1974.89	0.95
1983.68	0.956
1992.47	0.958
2001.26	0.958
2010.05	0.9484
2018.84	0.9332
2027.63	0.8984
2036.42	0.8599
2045.22	0.7897
2054.01	0.7441
2062.8	0.6773
2071.59	0.6357
2080.38	0.6578
2089.17	0.6184
2097.96	0.438
2106.75	0.728
2115.55	0.6729
2124.34	0.7816
2133.13	0.8798
2141.92	0.9105
2150.71	0.8898
2159.5	0.8721
2168.29	0.8806
2177.08	0.928
2185.88	0.8337
2194.67	0.8597
2203.46	0.88
2212.25	0.8978
2221.04	0.8964
2229.83	0.9064
2238.62	0.9271
2247.41	0.9412
2256.21	0.948
2265	0.9455
2273.79	0.9366
2282.58	0.9317
2291.37	0.9228
2300.16	0.9119
2308.95	0.8808
2317.74	0.9338
2326.54	0.9397
2335.33	0.944
2344.12	0.9453
2352.91	0.944
2361.7	0.9435
2370.49	0.9406
2379.28	0.938
2388.07	0.942
2396.87	0.9484
2405.66	0.9551
2414.45	0.954
2423.24	0.9491
2432.03	0.938
2440.82	0.928
2449.61	0.9203
2458.4	0.8948
2467.2	0.9081
2475.99	0.8892
2484.78	0.8907
2493.57	0.8923
2502.36	0.9023
2511.15	0.916
2519.94	0.922
2528.73	0.9297
2537.53	0.9405
2546.32	0.946
2555.11	0.9533
2563.9	0.9616
2572.69	0.9655
2581.48	0.9592
2590.27	0.9443
2599.06	0.9205
2607.86	0.8998
2616.65	0.9491
2625.44	0.908
2634.23	0.9156
2643.02	0.9332
2651.81	0.9487
2660.6	0.9577
2669.39	0.9666
2678.19	0.968
2686.98	0.968
2695.77	0.9667
2704.56	0.964
2713.35	0.9608
2722.14	0.9581
2730.93	0.959
2739.72	0.9618
2748.51	0.9652
2757.31	0.962
2766.1	0.96
2774.89	0.96
2783.68	0.96
2792.47	0.96
2801.26	0.956
2810.05	0.9508
2818.84	0.9335
2827.64	0.8875
2836.43	0.8353
2845.22	0.7941
2854.01	0.7778
2862.8	0.6967
2871.59	0.7205
2880.38	0.6596
2889.17	0.6365
2897.97	0.6134
2906.76	0.5812
2915.55	0.5653
2924.34	0.5823
2933.13	0.5224
2941.92	0.573
2950.71	0.5749
2959.5	0.6308
2968.3	0.6
2977.09	0.3516
2985.88	0.1067
2994.67	0.0161
3003.46	0.011
3012.25	0.0124
3021.04	0.009
3029.83	0.0111
3038.63	0.011
3047.42	0.011
3056.21	0.0242
3065	0.0401
3073.79	0.0551
3082.58	0.0938
3091.37	0.279
3100.16	0.015
3108.96	0.1701
3117.75	0.1274
3126.54	0.0706
3135.33	0.0725
3144.12	0.1391
3152.91	0.431
3161.7	0.7695
3170.49	0.9059
3179.29	0.9354
3188.08	0.9406
3196.87	0.942
3205.66	0.942
3214.45	0.9407
3223.24	0.938
3232.03	0.936
3240.82	0.936
3249.62	0.936
3258.41	0.938
3267.2	0.9392
3275.99	0.9378
3284.78	0.938
3293.57	0.938
3302.36	0.936
3311.15	0.936
3319.95	0.9357
3328.74	0.934
3337.53	0.9318
3346.32	0.9289
3355.11	0.928
3363.9	0.922
3372.69	0.9163
3381.48	0.91
3390.28	0.9047
3399.07	0.9
3407.86	0.8985
3416.65	0.8984
3425.44	0.902
3434.23	0.904
3443.02	0.908
3451.81	0.91
3460.6	0.912
3469.4	0.916
3478.19	0.918
3486.98	0.92
3495.77	0.9246
3504.56	0.93
3513.35	0.932
3522.14	0.934
3530.93	0.936
3539.73	0.936
3548.52	0.938
3557.31	0.938
3566.1	0.938
3574.89	0.94
3583.68	0.94
3592.47	0.942
3601.26	0.94
3610.06	0.938
3618.85	0.938
3627.64	0.9384
3636.43	0.94
3645.22	0.942
3654.01	0.942
3662.8	0.94
3671.59	0.939
3680.39	0.9361
3689.18	0.934
3697.97	0.9323
3706.76	0.9294
3715.55	0.9189
3724.34	0.9115
3733.13	0.9094
3741.92	0.9163
3750.72	0.9096
3759.51	0.9019
3768.3	0.899
3777.09	0.894
3785.88	0.8813
