Infrared Spectrum: CYCLOPROPANE
Formula: C3 H6
CAS: 75-19-4
State: GAS (100 mmHg DILUTED TO A TOTAL PRESSURE OF 400 mmHg WITH N2)
Class: COBLENTZ
Instrument: DOW KBr FOREPRISM-GRATING
Instrument parameters: BLAZED AT 3.5, 12.0, 20.0 MICRON, CHANGED AT 5.0, 7.5, 14.9 MICRON
Sampling: TRANSMISSION
Path length: 5 CM CELL
Resolution: 4
Origin: DOW CHEMICAL COMPANY
1/CM	TRANSMITTANCE
464.67	0.92
473.418	0.913
482.167	0.909
490.915	0.904
499.663	0.902
508.412	0.901
517.16	0.895
525.908	0.894
534.657	0.898
543.405	0.904
552.153	0.909
560.902	0.909
569.65	0.91
578.398	0.916
587.147	0.924
595.895	0.928
604.643	0.928
613.392	0.93
622.14	0.936
630.888	0.942
639.637	0.947
648.385	0.952
657.133	0.954
665.882	0.957
674.63	0.958
683.378	0.957
692.127	0.963
700.875	0.964
709.623	0.963
718.372	0.969
727.12	0.975
735.868	0.98
744.617	0.979
753.365	0.984
762.113	0.979
770.862	0.964
779.61	0.932
788.358	0.863
797.107	0.727
805.855	0.516
814.603	0.331
823.352	0.156
832.1	0.086
840.848	0.076
849.597	0.098
858.345	0.06
867.093	0.031
875.842	0.282
884.59	0.089
893.338	0.052
902.087	0.063
910.835	0.123
919.583	0.267
928.332	0.489
937.08	0.75
945.828	0.895
954.577	0.954
963.325	0.956
972.073	0.886
980.822	0.642
989.57	0.2949
998.318	0.108
1007.07	0.078
1015.82	0.1
1024.56	0.049
1033.31	0.123
1042.06	0.089
1050.81	0.073
1059.56	0.182
1068.31	0.471
1077.05	0.797
1085.8	0.926
1094.55	0.965
1103.3	0.984
1112.05	1
1120.8	0.986
1129.54	0.982
1138.29	0.975
1147.04	0.965
1155.79	0.971
1164.54	0.973
1173.29	0.978
1182.03	0.979
1190.78	0.979
1199.53	0.979
1208.28	0.983
1217.03	0.986
1225.78	0.987
1234.52	0.987
1243.27	0.98
1252.02	0.978
1260.77	0.973
1269.52	0.963
1278.27	0.958
1287.01	0.963
1295.76	0.963
1304.51	0.961
1313.26	0.963
1322.01	0.963
1330.76	0.961
1339.5	0.963
1348.25	0.961
1357	0.957
1365.75	0.958
1374.5	0.96
1383.25	0.967
1391.99	0.927
1400.74	0.865
1409.49	0.743
1418.24	0.661
1426.99	0.719
1435.74	0.691
1444.48	0.689
1453.23	0.708
1461.98	0.798
1470.73	0.85
1479.48	0.9
1488.23	0.941
1496.97	0.954
1505.72	0.957
1514.47	0.964
1523.22	0.961
1531.97	0.963
1540.72	0.957
1549.46	0.958
1558.21	0.956
1566.96	0.957
1575.71	0.956
1584.46	0.956
1593.21	0.953
1601.95	0.956
1610.7	0.952
1619.45	0.947
1628.2	0.939
1636.95	0.931
1645.7	0.943
1654.44	0.945
1663.19	0.946
1671.94	0.946
1680.69	0.946
1689.44	0.938
1698.19	0.919
1706.93	0.891
1715.68	0.845
1724.43	0.795
1733.18	0.758
1741.93	0.752
1750.68	0.758
1759.42	0.78
1768.17	0.906
1776.92	0.776
1785.67	0.802
1794.42	0.853
1803.17	0.886
1811.91	0.905
1820.66	0.912
1829.41	0.91
1838.16	0.906
1846.91	0.905
1855.66	0.891
1864.4	0.7349
1873.15	0.728
1881.9	0.58
1890.65	0.4309
1899.4	0.48
1908.15	0.65
1916.89	0.775
1925.64	0.878
1934.39	0.858
1943.14	0.934
1951.89	0.932
1960.64	0.939
1969.38	0.939
1978.13	0.947
1986.88	0.952
1995.63	0.954
2004.38	0.954
2013.13	0.9475
2021.87	0.9308
2030.62	0.9013
2039.37	0.8597
2048.12	0.7813
2056.87	0.7482
2065.62	0.6674
2074.36	0.6356
2083.11	0.6683
2091.86	0.6501
2100.61	0.4899
2109.36	0.7232
2118.11	0.6753
2126.85	0.7876
2135.6	0.8825
2144.35	0.9107
2153.1	0.8955
2161.85	0.8714
2170.6	0.8757
2179.34	0.9237
2188.09	0.8612
2196.84	0.8576
2205.59	0.8787
2214.34	0.8911
2223.09	0.9069
2231.83	0.9006
2240.58	0.9192
2249.33	0.9357
2258.08	0.9457
2266.83	0.945
2275.58	0.939
2284.32	0.9342
2293.07	0.9272
2301.82	0.9192
2310.57	0.9048
2319.32	0.9155
2328.07	0.939
2336.81	0.9428
2345.56	0.943
2354.31	0.945
2363.06	0.942
2371.81	0.9411
2380.56	0.9381
2389.3	0.9389
2398.05	0.9429
2406.8	0.9529
2415.55	0.956
2424.3	0.9521
2433.05	0.9432
2441.79	0.9322
2450.54	0.926
2459.29	0.9191
2468.04	0.8902
2476.79	0.9089
2485.54	0.8872
2494.28	0.8929
2503.03	0.89
2511.78	0.906
2520.53	0.917
2529.28	0.921
2538.03	0.9271
2546.77	0.941
2555.52	0.946
2564.27	0.9501
2573.02	0.9583
2581.77	0.9649
2590.52	0.9608
2599.26	0.9487
2608.01	0.9258
2616.76	0.8939
2625.51	0.922
2634.26	0.9222
2643.01	0.9098
2651.75	0.9279
2660.5	0.9461
2669.25	0.9561
2678	0.9641
2686.75	0.967
2695.5	0.967
2704.24	0.967
2712.99	0.9648
2721.74	0.9608
2730.49	0.958
2739.24	0.9602
2747.99	0.9632
2756.73	0.965
2765.48	0.9625
2774.23	0.96
2782.98	0.96
2791.73	0.958
2800.48	0.958
2809.22	0.957
2817.97	0.952
2826.72	0.9381
2835.47	0.8928
2844.22	0.8455
2852.97	0.79
2861.71	0.7814
2870.46	0.6724
2879.21	0.6968
2887.96	0.7085
2896.71	0.6366
2905.46	0.6179
2914.2	0.5804
2922.95	0.5592
2931.7	0.5972
2940.45	0.5377
2949.2	0.564
2957.95	0.5754
2966.69	0.6293
2975.44	0.5967
2984.19	0.3163
2992.94	0.1035
3001.69	0.0214
3010.44	0.01
3019.18	0.011
3027.93	0.008
3036.68	0.012
3045.43	0.012
3054.18	0.012
3062.93	0.0236
3071.67	0.0436
3080.42	0.0591
3089.17	0.097
3097.92	0.254
3106.67	0.009
3115.42	0.2187
3124.16	0.0923
3132.91	0.064
3141.66	0.0792
3150.41	0.2386
3159.16	0.5361
3167.91	0.8002
3176.65	0.9179
3185.4	0.9356
3194.15	0.942
3202.9	0.941
3211.65	0.941
3220.4	0.939
3229.14	0.938
3237.89	0.9353
3246.64	0.936
3255.39	0.938
3264.14	0.938
3272.89	0.939
3281.63	0.938
3290.38	0.936
3299.13	0.936
3307.88	0.935
3316.63	0.934
3325.38	0.934
3334.12	0.934
3342.87	0.931
3351.62	0.9284
3360.37	0.9244
3369.12	0.92
3377.87	0.9122
3386.61	0.9082
3395.36	0.9012
3404.11	0.8983
3412.86	0.8979
3421.61	0.898
3430.36	0.9009
3439.1	0.904
3447.85	0.906
3456.6	0.9099
3465.35	0.913
3474.1	0.915
3482.85	0.9169
3491.59	0.9209
3500.34	0.926
3509.09	0.9299
3517.84	0.932
3526.59	0.934
3535.34	0.934
3544.08	0.935
3552.83	0.938
3561.58	0.936
3570.33	0.938
3579.08	0.941
3587.83	0.939
3596.57	0.9409
3605.32	0.939
3614.07	0.939
3622.82	0.938
3631.57	0.9381
3640.32	0.9391
3649.06	0.941
3657.81	0.939
3666.56	0.939
3675.31	0.938
3684.06	0.936
3692.81	0.932
3701.55	0.93
3710.3	0.9257
3719.05	0.9147
3727.8	0.9088
3736.55	0.909
3745.3	0.917
3754.04	0.9083
3762.79	0.9008
3771.54	0.898
3780.29	0.8924
3789.04	0.8772
3797.79	0.8561
