Infrared Spectrum: CYCLOPROPANE
Formula: C3 H6
CAS: 75-19-4
State: GAS
Class: COBLENTZ
Instrument: Not specified, most likely a prism, grating, or hybrid spectrometer.
Sampling: TRANSMISSION
Resolution: 4
Origin: DOW CHEMICAL COMPANY
MICROMETERS	TRANSMITTANCE
2.035	0.816
2.0752	0.816
2.11541	0.815
2.15561	0.806
2.19581	0.791
2.23601	0.808
2.27622	0.815
2.31642	0.798
2.35662	0.8
2.39683	0.811
2.43703	0.818
2.47723	0.82
2.51743	0.821
2.55764	0.816
2.59784	0.816
2.63804	0.82
2.67825	0.825
2.71845	0.823
2.75865	0.821
2.79886	0.816
2.83906	0.82
2.87926	0.818
2.91946	0.818
2.95967	0.818
2.99987	0.818
3.04007	0.821
3.08028	0.821
3.12048	0.82
3.16068	0.766
3.20088	0.616
3.24109	0.575
3.28129	0.521
3.32149	0.42
3.3617	0.698
3.4019	0.758
3.4421	0.771
3.4823	0.798
3.52251	0.823
3.56271	0.835
3.60291	0.841
3.64312	0.84
3.68332	0.843
3.72352	0.845
3.76372	0.841
3.80393	0.841
3.84413	0.843
3.88433	0.85
3.92454	0.85
3.96474	0.843
4.00494	0.841
4.04514	0.845
4.08535	0.851
4.12555	0.86
4.16575	0.861
4.20596	0.861
4.24616	0.851
4.28636	0.855
4.32657	0.855
4.36677	0.863
4.40697	0.863
4.44717	0.863
4.48738	0.861
4.52758	0.856
4.56778	0.855
4.60799	0.863
4.64819	0.86
4.68839	0.861
4.72859	0.835
4.7688	0.828
4.809	0.821
4.8492	0.83
4.88941	0.841
4.92961	0.861
4.96981	0.866
5.01001	0.868
5.05022	0.868
5.09042	0.868
5.13062	0.865
5.17083	0.863
5.21103	0.85
5.25123	0.811
5.29143	0.791
5.33164	0.836
5.37184	0.851
5.41204	0.865
5.45225	0.868
5.49245	0.87
5.53265	0.868
5.57285	0.861
5.61306	0.856
5.65326	0.865
5.69346	0.855
5.73367	0.848
5.77387	0.846
5.81407	0.863
5.85428	0.87
5.89448	0.87
5.93468	0.87
5.97488	0.866
6.01509	0.866
6.05529	0.865
6.09549	0.865
6.1357	0.86
6.1759	0.856
6.2161	0.85
6.2563	0.84
6.29651	0.838
6.33671	0.833
6.37691	0.846
6.41712	0.855
6.45732	0.868
6.49752	0.87
6.53772	0.87
6.57793	0.87
6.61813	0.87
6.65833	0.873
6.69854	0.866
6.73874	0.865
6.77894	0.85
6.81914	0.831
6.85935	0.818
6.89955	0.813
6.93975	0.808
6.97996	0.82
7.02016	0.815
7.06036	0.826
7.10056	0.836
7.14077	0.853
7.18097	0.863
7.22117	0.865
7.26138	0.865
7.30158	0.87
7.34178	0.871
7.38199	0.873
7.42219	0.875
7.46239	0.875
7.50259	0.876
7.5428	0.876
7.583	0.88
7.6232	0.878
7.66341	0.88
7.70361	0.878
7.74381	0.878
7.78401	0.88
7.82422	0.878
7.86442	0.875
7.90462	0.881
7.94483	0.878
7.98503	0.88
8.02523	0.878
8.06543	0.88
8.10564	0.875
8.14584	0.88
8.18604	0.878
8.22625	0.878
8.26645	0.876
8.30665	0.875
8.34685	0.876
8.38706	0.878
8.42726	0.876
8.46746	0.876
8.50767	0.875
8.54787	0.875
8.58807	0.875
8.62827	0.873
8.66848	0.875
8.70868	0.873
8.74888	0.875
8.78909	0.875
8.82929	0.875
8.86949	0.871
8.9097	0.871
8.9499	0.873
8.9901	0.871
9.0303	0.871
9.07051	0.871
9.11071	0.871
9.15091	0.87
9.19112	0.866
9.23132	0.861
9.27152	0.841
9.31172	0.811
9.35193	0.771
9.39213	0.721
9.43233	0.671
9.47254	0.615
9.51274	0.596
9.55294	0.596
9.59314	0.635
9.63335	0.626
9.67355	0.571
9.71375	0.493
9.75396	0.511
9.79416	0.62
9.83436	0.635
9.87456	0.625
9.91477	0.618
9.95497	0.626
9.99517	0.661
10.0354	0.703
10.0756	0.755
10.1158	0.791
10.156	0.825
10.1962	0.846
10.2364	0.865
10.2766	0.871
10.3168	0.875
10.357	0.875
10.3972	0.876
10.4374	0.875
10.4776	0.873
10.5178	0.868
10.558	0.866
10.5982	0.861
10.6384	0.85
10.6786	0.833
10.7188	0.816
10.759	0.793
10.7992	0.765
10.8394	0.743
10.8796	0.708
10.9198	0.673
10.96	0.643
11.0002	0.616
11.0404	0.595
11.0807	0.58
11.1209	0.571
11.1611	0.566
11.2013	0.573
11.2415	0.59
11.2817	0.625
11.3219	0.67
11.3621	0.715
11.4023	0.703
11.4425	0.593
11.4827	0.47
11.5229	0.338
11.5631	0.326
11.6033	0.45
11.6435	0.565
11.6837	0.618
11.7239	0.625
11.7641	0.626
11.8043	0.623
11.8445	0.613
11.8847	0.608
11.9249	0.605
11.9651	0.615
12.0053	0.625
12.0455	0.64
12.0857	0.653
12.1259	0.676
12.1661	0.695
12.2063	0.718
12.2465	0.743
12.2867	0.758
12.3269	0.776
12.3671	0.79
12.4073	0.803
12.4475	0.813
12.4878	0.825
12.528	0.831
12.5682	0.836
12.6084	0.843
12.6486	0.846
12.6888	0.851
12.729	0.853
12.7692	0.855
12.8094	0.855
12.8496	0.855
12.8898	0.855
12.93	0.853
12.9702	0.851
13.0104	0.851
13.0506	0.85
13.0908	0.846
13.131	0.845
13.1712	0.843
13.2114	0.843
13.2516	0.84
13.2918	0.836
13.332	0.838
13.3722	0.835
13.4124	0.833
13.4526	0.831
13.4928	0.828
13.533	0.826
13.5732	0.823
13.6134	0.823
13.6536	0.818
13.6938	0.816
13.734	0.815
13.7742	0.81
13.8144	0.806
13.8547	0.806
13.8949	0.803
13.9351	0.798
13.9753	0.793
14.0155	0.791
14.0557	0.788
14.0959	0.783
14.1361	0.78
14.1763	0.775
14.2165	0.771
14.2567	0.765
14.2969	0.761
14.3371	0.758
14.3773	0.753
14.4175	0.746
14.4577	0.74
14.4979	0.736
14.5381	0.731
14.5783	0.725
14.6185	0.718
14.6587	0.71
14.6989	0.703
14.7391	0.698
14.7793	0.69
14.8195	0.68
14.8597	0.675
14.8999	0.666
14.9401	0.655
14.9803	0.653
15.0205	0.653
15.0607	0.648
15.1009	0.64
15.1411	0.633
15.1813	0.63
15.2215	0.625
15.2618	0.62
15.302	0.613
15.3422	0.608
15.3824	0.603
15.4226	0.596
15.4628	0.591
15.503	0.586
15.5432	0.578
15.5834	0.573
15.6236	0.568
15.6638	0.56
15.704	0.553
15.7442	0.551
15.7844	0.546
15.8246	0.538
15.8648	0.533
15.905	0.533
