Infrared Spectrum: n-Butyl amine
Formula: C4 H11 N
CAS: 109-73-9
State: GAS (40 mmHg, N2 ADDED, TOTAL PRESSURE 600 mmHg)
Class: COBLENTZ
Instrument: DOW KBr FOREPRISM-GRATING
Instrument parameters: GRATING CHANGED AT 5.0, 7.5, 15.0 MICRON
Sampling: TRANSMISSION
Path length: 5 CM
Resolution: 2
Origin: DOW CHEMICAL COMPANY
1/CM	TRANSMITTANCE
463	0.8273
472	0.8211
481	0.813
490	0.8058
499	0.8018
508	0.8063
517	0.8217
526	0.834
535	0.8374
544	0.8394
553	0.8389
562	0.8384
571	0.8387
580	0.8384
589	0.841
598	0.8441
607	0.8478
616	0.848
625	0.8458
634	0.843
643	0.8394
652	0.8358
661	0.8323
670	0.8289
679	0.8297
688	0.8279
697	0.8077
706	0.7842
715	0.7557
724	0.7181
733	0.6564
742	0.5606
751	0.4468
760	0.3354
769	0.2206
778	0.1841
787	0.2207
796	0.2834
805	0.4526
814	0.5305
823	0.6002
832	0.6589
841	0.7472
850	0.7717
859	0.7894
868	0.8003
877	0.8106
886	0.8198
895	0.8218
904	0.8187
913	0.8235
922	0.8315
931	0.8252
940	0.8303
949	0.8245
958	0.8161
967	0.8088
976	0.82
985	0.8447
994	0.8487
1003	0.8461
1012	0.8413
1021	0.8409
1030	0.8328
1039	0.8309
1048	0.8171
1057	0.7958
1066	0.7685
1075	0.7301
1084	0.6919
1093	0.6852
1102	0.7152
1111	0.7659
1120	0.8078
1129	0.8259
1138	0.8391
1147	0.8522
1156	0.8659
1165	0.8754
1174	0.877
1183	0.8752
1192	0.8837
1201	0.8855
1210	0.8849
1219	0.8841
1228	0.8774
1237	0.8662
1246	0.8528
1255	0.8482
1264	0.8511
1273	0.8536
1282	0.8538
1291	0.8467
1300	0.8371
1309	0.8283
1318	0.8284
1327	0.8324
1336	0.8302
1345	0.8143
1354	0.7961
1363	0.7742
1372	0.7636
1381	0.6968
1390	0.6499
1399	0.6636
1408	0.7493
1417	0.8121
1426	0.7847
1435	0.7982
1444	0.7436
1453	0.7081
1462	0.5987
1471	0.6126
1480	0.6271
1489	0.6912
1498	0.739
1507	0.8113
1516	0.7792
1525	0.7833
1534	0.8311
1543	0.8196
1552	0.8168
1561	0.8312
1570	0.83
1579	0.8289
1588	0.8155
1597	0.7884
1606	0.7411
1615	0.669
1624	0.5963
1633	0.6142
1642	0.591
1651	0.707
1660	0.6846
1669	0.8324
1678	0.8141
1687	0.8384
1696	0.8505
1705	0.7211
1714	0.8561
1723	0.7813
1732	0.8535
1741	0.7912
1750	0.8463
1759	0.8552
1768	0.8579
1777	0.8437
1786	0.8585
1795	0.8424
1804	0.8588
1813	0.8603
1822	0.8569
1831	0.8576
1840	0.8596
1849	0.8556
1858	0.8627
1867	0.8594
1876	0.8645
1885	0.8661
1894	0.8677
1903	0.8693
1912	0.8706
1921	0.8714
1930	0.8714
1939	0.8712
1948	0.8707
1957	0.8698
1966	0.8758
1975	0.8778
1984	0.8774
1993	0.8787
2002	0.883
2011	0.8826
2020	0.8816
2029	0.8805
2038	0.8799
2047	0.8799
2056	0.8799
2065	0.8797
2074	0.8796
2083	0.8794
2092	0.8793
2101	0.8791
2110	0.8789
2119	0.8789
2128	0.8791
2137	0.8792
2146	0.8792
2155	0.8793
2164	0.8793
2173	0.8795
2182	0.8799
2191	0.8802
2200	0.8806
2209	0.881
2218	0.8813
2227	0.8814
2236	0.8815
2245	0.8816
2254	0.8816
2263	0.8817
2272	0.8819
2281	0.882
2290	0.8822
2299	0.8823
2308	0.8825
2317	0.8826
2326	0.883
2335	0.8832
2344	0.8835
2353	0.8838
2362	0.8841
2371	0.8836
2380	0.8824
2389	0.8812
2398	0.8811
2407	0.881
2416	0.8809
2425	0.8808
2434	0.8818
2443	0.8831
2452	0.8844
2461	0.8856
2470	0.8863
2479	0.8868
2488	0.8871
2497	0.8871
2506	0.887
2515	0.8862
2524	0.8855
2533	0.8847
2542	0.8839
2551	0.8831
2560	0.8822
2569	0.8809
2578	0.879
2587	0.8772
2596	0.8753
2605	0.8732
2614	0.8707
2623	0.8682
2632	0.8657
2641	0.8631
2650	0.859
2659	0.8547
2668	0.8504
2677	0.8461
2686	0.8422
2695	0.8386
2704	0.8362
2713	0.83
2722	0.8228
2731	0.8081
2740	0.7937
2749	0.7877
2758	0.7897
2767	0.7953
2776	0.8033
2785	0.8102
2794	0.8062
2803	0.7899
2812	0.752
2821	0.6842
2830	0.5761
2839	0.4089
2848	0.305
2857	0.2591
2866	0.2357
2875	0.2242
2884	0.2387
2893	0.2586
2902	0.2553
2911	0.1847
2920	0.1011
2929	0.0787
2938	0.0792
2947	0.0886
2956	0.0859
2965	0.0824
2974	0.1355
2983	0.2546
2992	0.4145
3001	0.6539
3010	0.804
3019	0.8317
3028	0.8412
3037	0.8457
3046	0.8493
3055	0.8528
3064	0.856
3073	0.8589
3082	0.8612
3091	0.8633
3100	0.8653
3109	0.867
3118	0.8688
3127	0.8702
3136	0.871
3145	0.8714
3154	0.8714
3163	0.8715
3172	0.8719
3181	0.8724
3190	0.8737
3199	0.8749
3208	0.877
3217	0.8812
3226	0.8839
3235	0.8839
3244	0.884
3253	0.8839
3262	0.8838
3271	0.8836
3280	0.8833
3289	0.8828
3298	0.8819
3307	0.8792
3316	0.8746
3325	0.8683
3334	0.8613
3343	0.8566
3352	0.86
3361	0.8725
3370	0.8818
3379	0.8813
3388	0.8807
3397	0.8801
3406	0.8797
3415	0.8793
3424	0.8802
3433	0.8822
3442	0.884
3451	0.8858
3460	0.8867
3469	0.8874
3478	0.8881
3487	0.8889
3496	0.8897
3505	0.8905
3514	0.8914
3523	0.8912
3532	0.8904
3541	0.8895
3550	0.8888
3559	0.8881
3568	0.8875
3577	0.8861
3586	0.884
3595	0.8804
3604	0.8751
3613	0.8683
3622	0.8863
3631	0.8747
3640	0.8679
3649	0.8874
3658	0.8599
3667	0.8845
3676	0.8679
3685	0.8855
3694	0.8752
3703	0.8822
3712	0.8826
3721	0.8697
3730	0.8457
3739	0.8761
3748	0.8942
3757	0.8939
3766	0.8923
3775	0.8878
3784	0.8708
