Infrared Spectrum: BUTANAMINE
Formula: C4 H11 N
CAS: 109-73-9
State: LIQUID (NEAT)
Class: COBLENTZ III
Instrument: DOW KBr FOREPRISM-GRATING
Instrument parameters: BLAZED AT 3.5, 12.0, 20.0 MICRON, CHANGED AT 5.0, 7.5, 14.9 MICRON
Sampling: TRANSMISSION
Path length: CAPILLARY
Resolution: 4
Origin: DOW CHEMICAL COMPANY
1/CM	TRANSMITTANCE
447.982	0.73
456.51	0.726
465.037	0.724
473.565	0.713
482.092	0.704
490.62	0.686
499.147	0.668
507.675	0.689
516.203	0.73
524.73	0.74
533.258	0.737
541.785	0.734
550.313	0.733
558.841	0.724
567.368	0.716
575.896	0.708
584.423	0.696
592.951	0.69
601.478	0.684
610.006	0.678
618.534	0.674
627.061	0.668
635.589	0.662
644.116	0.658
652.644	0.653
661.171	0.646
669.699	0.646
678.227	0.638
686.754	0.625
695.282	0.612
703.809	0.6
712.337	0.581
720.865	0.549
729.392	0.47
737.92	0.35
746.447	0.414
754.975	0.417
763.502	0.382
772.03	0.292
780.558	0.205
789.085	0.158
797.613	0.152
806.14	0.158
814.668	0.137
823.195	0.1
831.723	0.078
840.251	0.065
848.778	0.077
857.306	0.088
865.833	0.089
874.361	0.101
882.889	0.109
891.416	0.126
899.944	0.157
908.471	0.197
916.999	0.264
925.526	0.35
934.054	0.426
942.582	0.454
951.109	0.466
959.637	0.414
968.164	0.34
976.692	0.386
985.219	0.464
993.747	0.524
1002.27	0.548
1010.8	0.59
1019.33	0.634
1027.86	0.637
1036.38	0.638
1044.91	0.578
1053.44	0.554
1061.97	0.54
1070.5	0.526
1079.02	0.453
1087.55	0.446
1096.08	0.489
1104.61	0.673
1113.13	0.689
1121.66	0.602
1130.19	0.596
1138.72	0.64
1147.24	0.717
1155.77	0.793
1164.3	0.833
1172.83	0.837
1181.35	0.837
1189.88	0.877
1198.41	0.881
1206.94	0.892
1215.46	0.89
1223.99	0.877
1232.52	0.85
1241.05	0.812
1249.57	0.808
1258.1	0.808
1266.63	0.812
1275.16	0.813
1283.68	0.793
1292.21	0.756
1300.74	0.718
1309.27	0.697
1317.8	0.696
1326.32	0.717
1334.85	0.698
1343.38	0.69
1351.91	0.684
1360.43	0.63
1368.96	0.544
1377.49	0.406
1386.02	0.384
1394.54	0.469
1403.07	0.66
1411.6	0.748
1420.13	0.737
1428.65	0.685
1437.18	0.522
1445.71	0.445
1454.24	0.264
1462.76	0.132
1471.29	0.161
1479.82	0.368
1488.35	0.569
1496.87	0.676
1505.4	0.71
1513.93	0.72
1522.46	0.718
1530.98	0.706
1539.51	0.678
1548.04	0.633
1556.57	0.582
1565.09	0.526
1573.62	0.466
1582.15	0.396
1590.68	0.325
1599.21	0.289
1607.73	0.293
1616.26	0.334
1624.79	0.394
1633.32	0.44
1641.84	0.502
1650.37	0.552
1658.9	0.557
1667.43	0.561
1675.95	0.594
1684.48	0.684
1693.01	0.753
1701.54	0.821
1710.06	0.854
1718.59	0.906
1727.12	0.92
1735.65	0.946
1744.17	0.953
1752.7	0.961
1761.23	0.974
1769.76	0.978
1778.28	0.984
1786.81	0.985
1795.34	0.986
1803.87	0.986
1812.39	0.989
1820.92	0.986
1829.45	0.989
1837.98	0.988
1846.5	0.986
1855.03	0.984
1863.56	0.984
1872.09	0.985
1880.62	0.981
1889.14	0.982
1897.67	0.982
1906.2	0.981
1914.73	0.978
1923.25	0.977
1931.78	0.968
1940.31	0.973
1948.84	0.98
1957.36	0.982
1965.89	0.99
1974.42	0.984
1982.95	0.982
1991.47	0.984
2000	0.985
2008.53	0.985
2017.06	0.982
2025.58	0.973
2034.11	0.974
2042.64	0.9769
2051.17	0.977
2059.69	0.9731
2068.22	0.969
2076.75	0.973
2085.28	0.981
2093.8	0.9811
2102.33	0.9781
2110.86	0.9779
2119.39	0.981
2127.91	0.978
2136.44	0.978
2144.97	0.978
2153.5	0.9761
2162.03	0.9691
2170.55	0.968
2179.08	0.968
2187.61	0.968
2196.14	0.965
2204.66	0.964
2213.19	0.964
2221.72	0.964
2230.25	0.964
2238.77	0.965
2247.3	0.966
2255.83	0.966
2264.36	0.9677
2272.88	0.9681
2281.41	0.9754
2289.94	0.9757
2298.47	0.976
2306.99	0.978
2315.52	0.9762
2324.05	0.98
2332.58	0.9783
2341.1	0.9808
2349.63	0.982
2358.16	0.9802
2366.69	0.976
2375.21	0.977
2383.74	0.974
2392.27	0.9738
2400.8	0.97
2409.33	0.97
2417.85	0.972
2426.38	0.977
2434.91	0.977
2443.44	0.9778
2451.96	0.9795
2460.49	0.977
2469.02	0.976
2477.55	0.9722
2486.07	0.97
2494.6	0.9665
2503.13	0.9643
2511.66	0.9585
2520.18	0.957
2528.71	0.9523
2537.24	0.9445
2545.77	0.9386
2554.29	0.933
2562.82	0.9259
2571.35	0.9179
2579.88	0.9123
2588.4	0.8989
2596.93	0.892
2605.46	0.8806
2613.99	0.8702
2622.51	0.8586
2631.04	0.8506
2639.57	0.844
2648.1	0.834
2656.62	0.8173
2665.15	0.7973
2673.68	0.7747
2682.21	0.7587
2690.74	0.756
2699.26	0.754
2707.79	0.752
2716.32	0.7285
2724.85	0.6977
2733.37	0.6324
2741.9	0.5951
2750.43	0.5848
2758.96	0.576
2767.48	0.5865
2776.01	0.5964
2784.54	0.5832
2793.07	0.554
2801.59	0.4983
2810.12	0.4106
2818.65	0.3046
2827.18	0.167
2835.7	0.0879
2844.23	0.0383
2852.76	0.0273
2861.29	0.0204
2869.81	0.02
2878.34	0.02
2886.87	0.034
2895.4	0.0329
2903.92	0.0205
2912.45	0.017
2920.98	0.0165
2929.51	0.016
2938.03	0.017
2946.56	0.017
2955.09	0.017
2963.62	0.018
2972.15	0.0225
2980.67	0.0571
2989.2	0.2305
2997.73	0.3374
3006.26	0.4149
3014.78	0.4569
3023.31	0.4849
3031.84	0.5024
3040.37	0.5095
3048.89	0.5125
3057.42	0.5071
3065.95	0.5031
3074.48	0.5005
3083	0.4895
3091.53	0.4827
3100.06	0.4722
3108.59	0.4591
3117.11	0.4467
3125.64	0.4291
3134.17	0.4091
3142.7	0.3883
3151.22	0.3639
3159.75	0.3439
3168.28	0.3164
3176.81	0.292
3185.33	0.2748
3193.86	0.269
3202.39	0.266
3210.92	0.265
3219.45	0.2632
3227.97	0.2576
3236.5	0.2469
3245.03	0.236
3253.56	0.2218
3262.08	0.2029
3270.61	0.1865
3279.14	0.1682
3287.67	0.1576
3296.19	0.153
3304.72	0.158
3313.25	0.1804
3321.78	0.2007
3330.3	0.2123
3338.83	0.217
3347.36	0.211
3355.89	0.1828
3364.41	0.1551
3372.94	0.145
3381.47	0.1622
3390	0.1997
3398.52	0.2532
3407.05	0.3
3415.58	0.3309
3424.11	0.3499
3432.63	0.3651
3441.16	0.3791
3449.69	0.3933
3458.22	0.4013
3466.74	0.4173
3475.27	0.4345
3483.8	0.4525
3492.33	0.4675
3500.86	0.487
3509.38	0.5039
3517.91	0.5257
3526.44	0.5474
3534.97	0.5701
3543.49	0.5941
3552.02	0.6225
3560.55	0.6515
3569.08	0.6793
3577.6	0.7056
3586.13	0.7332
3594.66	0.7616
3603.19	0.7831
3611.71	0.8019
3620.24	0.8263
3628.77	0.8425
3637.3	0.8627
3645.82	0.875
3654.35	0.89
3662.88	0.8888
3671.41	0.8771
3679.93	0.864
3688.46	0.9047
3696.99	0.9623
3705.52	0.984
3714.04	0.9881
3722.57	0.9943
3731.1	0.9983
3739.63	1.002
3748.15	1.001
3756.68	1.005
3765.21	1.005
3773.74	1.004
3782.27	1.004
