Infrared Spectrum: n-Butylamine
Formula: C 4 H 11 N
CAS: 109-73-9
State: gas
Origin: EPA-IR VAPOR PHASE LIBRARY
1/CM	ABSORBANCE
501.5	0.0146
513.074	0.01317
524.648	0.01239
536.222	0.0121
547.796	0.01284
559.37	0.01382
570.944	0.0147
582.518	0.01592
594.092	0.0173
605.666	0.01858
617.24	0.02021
628.814	0.02215
640.388	0.02447
651.962	0.02711
663.536	0.02987
675.11	0.03288
686.684	0.03707
698.258	0.04361
709.832	0.05472
721.406	0.07262
732.98	0.09661
744.554	0.12377
756.128	0.14651
767.702	0.15639
779.276	0.14668
790.85	0.12003
802.423	0.09028
813.997	0.0677
825.571	0.05263
837.145	0.04043
848.719	0.03349
860.293	0.02935
871.867	0.02638
883.441	0.02424
895.015	0.02247
906.589	0.02112
918.163	0.01958
929.737	0.019
941.311	0.01872
952.885	0.01865
964.459	0.01803
976.033	0.01676
987.607	0.01568
999.181	0.01614
1010.76	0.01759
1022.33	0.01936
1033.9	0.0222
1045.48	0.02561
1057.05	0.03122
1068.63	0.03911
1080.2	0.04411
1091.77	0.04091
1103.35	0.03075
1114.92	0.02118
1126.49	0.01553
1138.07	0.01173
1149.64	0.00927
1161.22	0.00768
1172.79	0.00655
1184.36	0.00601
1195.94	0.00535
1207.51	0.00539
1219.09	0.00598
1230.66	0.00706
1242.23	0.00785
1253.81	0.0081
1265.38	0.00827
1276.96	0.00873
1288.53	0.01018
1300.1	0.01162
1311.68	0.01304
1323.25	0.01516
1334.83	0.01773
1346.4	0.02148
1357.97	0.02637
1369.55	0.03412
1381.12	0.03857
1392.7	0.03639
1404.27	0.02582
1415.84	0.01933
1427.42	0.02169
1438.99	0.02935
1450.57	0.03884
1462.14	0.04473
1473.71	0.04099
1485.29	0.03216
1496.86	0.02133
1508.44	0.01468
1520.01	0.0113
1531.58	0.00985
1543.16	0.00957
1554.73	0.01012
1566.31	0.01172
1577.88	0.01498
1589.45	0.02085
1601.03	0.03088
1612.6	0.04243
1624.18	0.04483
1635.75	0.03749
1647.32	0.02385
1658.9	0.0145
1670.47	0.00961
1682.05	0.00693
1693.62	0.00549
1705.19	0.00475
1716.77	0.00434
1728.34	0.00405
1739.92	0.00387
1751.49	0.00372
1763.06	0.00355
1774.64	0.00347
1786.21	0.00345
1797.79	0.00349
1809.36	0.00348
1820.93	0.00337
1832.51	0.00321
1844.08	0.0029
1855.66	0.0025
1867.23	0.0021
1878.8	0.00167
1890.38	0.00133
1901.95	0.00108
1913.53	0.0009058
1925.1	0.0008095
1936.67	0.0007278
1948.25	0.0006429
1959.82	0.0005384
1971.4	0.0004616
1982.97	0.0004318
1994.54	0.0004167
2006.12	0.000517
2017.69	0.0007073
2029.27	0.0008072
2040.84	0.000838
2052.41	0.0007811
2063.99	0.0006692
2075.56	0.0005591
2087.14	0.000656
2098.71	0.0006763
2110.28	0.0007151
2121.86	0.000753
2133.43	0.0007161
2145.01	0.0006444
2156.58	0.0006061
2168.15	0.0005944
2179.73	0.0005619
2191.3	0.0006236
2202.88	0.0005667
2214.45	0.000605
2226.02	0.0006313
2237.6	0.0007054
2249.17	0.000712
2260.74	0.0008235
2272.32	0.0008759
2283.89	0.000845
2295.47	0.0008168
2307.04	0.0008581
2318.61	0.0008869
2330.19	0.000949
2341.76	0.0008756
2353.34	0.0009121
2364.91	0.0009653
2376.48	0.0009569
2388.06	0.0009936
2399.63	0.00107
2411.21	0.00108
2422.78	0.00104
2434.35	0.0009406
2445.93	0.0008035
2457.5	0.0007806
2469.08	0.0008151
2480.65	0.0008413
2492.22	0.0009512
2503.8	0.00108
2515.37	0.00123
2526.95	0.00146
2538.52	0.0018
2550.09	0.00209
2561.67	0.00241
2573.24	0.00283
2584.82	0.00322
2596.39	0.0036
2607.96	0.00414
2619.54	0.00472
2631.11	0.00538
2642.69	0.00614
2654.26	0.00712
2665.83	0.00816
2677.41	0.00927
2688.98	0.01012
2700.56	0.0111
2712.13	0.01237
2723.7	0.01434
2735.28	0.01667
2746.85	0.01852
2758.43	0.01938
2770	0.0197
2781.57	0.02135
2793.15	0.02549
2804.72	0.03366
2816.3	0.04848
2827.87	0.07309
2839.44	0.10925
2851.02	0.15054
2862.59	0.18733
2874.17	0.21927
2885.74	0.22629
2897.31	0.246
2908.89	0.2847
2920.46	0.34815
2932.04	0.40273
2943.61	0.39558
2955.18	0.37403
2966.76	0.32214
2978.33	0.24214
2989.91	0.13832
3001.48	0.06795
3013.05	0.03613
3024.63	0.02286
3036.2	0.0172
3047.78	0.01405
3059.35	0.01171
3070.92	0.0101
3082.5	0.00889
3094.07	0.00785
3105.65	0.007
3117.22	0.00625
3128.79	0.00568
3140.37	0.00525
3151.94	0.00482
3163.52	0.00454
3175.09	0.00418
3186.66	0.00399
3198.24	0.00357
3209.81	0.0031
3221.39	0.00261
3232.96	0.00208
3244.53	0.00176
3256.11	0.00149
3267.68	0.00138
3279.26	0.00118
3290.83	0.00119
3302.4	0.00149
3313.98	0.00182
3325.55	0.00259
3337.13	0.00378
3348.7	0.00426
3360.27	0.00375
3371.85	0.00261
3383.42	0.00199
3395	0.00175
3406.57	0.00174
3418.14	0.00159
3429.72	0.00136
3441.29	0.000899
3452.86	0.0007414
3464.44	0.0004627
3476.01	0.0004543
3487.59	0.0003342
3499.16	0.0002682
3510.73	0.0002568
3522.31	0.0004158
3533.88	0.0002463
3545.46	0.0002342
3557.03	0.000255
3568.6	0.0003141
3580.18	0.0002795
3591.75	0.0003371
3603.33	0.00036
3614.9	0.0004706
3626.47	0.0006265
3638.05	0.0007055
3649.62	0.0008926
3661.2	0.0007387
3672.77	0.0008144
3684.34	0.000639
3695.92	0.0006124
3707.49	0.0007396
3719.07	0.0006195
3730.64	0.0006057
3742.21	0.0005385
3753.79	0.000576
3765.36	0.0006982
3776.94	0.0006095
3788.51	0.0007011
3800.08	0.0006757
3811.66	0.0006553
3823.23	0.0008351
3834.81	0.0009089
3846.38	0.0008435
3857.95	0.000794
3869.53	0.0006713
3881.1	0.0007367
3892.68	0.000737
3904.25	0.0008141
3915.82	0.0009275
3927.4	0.0009845
3938.97	0.000951
3950.55	0.00115
3962.12	0.00126
3973.69	0.00134
3985.27	0.0014
3996.84	0.00145
