Infrared Spectrum: 2-Mercaptothiazole
Formula: C 3 H 3 N S 2
CAS: 82358-09-6
State: gas
Origin: EPA-IR VAPOR PHASE LIBRARY
1/CM	ABSORBANCE
549.8	0.003151
559.445	0.002931
569.09	0.004371
578.734	0.006911
588.379	0.008691
598.024	0.008881
607.669	0.006521
617.313	0.006901
626.958	0.006661
636.603	0.006521
646.248	0.005461
655.893	0.007281
665.537	0.010091
675.182	0.028791
684.827	0.012001
694.472	0.010261
704.116	0.007911
713.761	0.005921
723.406	0.004721
733.051	0.004661
742.695	0.003141
752.34	0.002521
761.985	0.002231
771.63	0.001611
781.275	0.001841
790.919	0.0012002
800.564	0.0012897
810.209	0.0015324
819.854	0.003241
829.498	0.009181
839.143	0.009531
848.788	0.009671
858.433	0.003621
868.078	0.002451
877.722	0.002801
887.367	0.001991
897.012	0.002041
906.657	0.002601
916.301	0.002491
925.946	0.002561
935.591	0.001751
945.236	0.0010009
954.88	0.0012874
964.525	0.001891
974.17	0.001631
983.815	0.0014983
993.46	0.003001
1003.1	0.004121
1012.75	0.008161
1022.39	0.014961
1032.04	0.019251
1041.68	0.019811
1051.33	0.018791
1060.97	0.014381
1070.62	0.012431
1080.26	0.006441
1089.91	0.004071
1099.55	0.001911
1109.2	0.0012807
1118.84	0.003161
1128.49	0.010651
1138.13	0.015491
1147.78	0.019091
1157.42	0.014831
1167.07	0.014341
1176.71	0.011841
1186.36	0.009491
1196	0.011311
1205.64	0.015261
1215.29	0.014961
1224.93	0.008531
1234.58	0.002301
1244.22	0.0014285
1253.87	0.0012089
1263.51	0.0010787
1273.16	0.0009743
1282.8	0.0007467
1292.45	0.002021
1302.09	0.004221
1311.74	0.010481
1321.38	0.013281
1331.03	0.012591
1340.67	0.006431
1350.32	0.003321
1359.96	0.003221
1369.61	0.003531
1379.25	0.005321
1388.9	0.008051
1398.54	0.010981
1408.18	0.017021
1417.83	0.038931
1427.47	0.059501
1437.12	0.055431
1446.76	0.032351
1456.41	0.005691
1466.05	0.004311
1475.7	0.004411
1485.34	0.004101
1494.99	0.003761
1504.63	0.003791
1514.28	0.002951
1523.92	0.002891
1533.57	0.002571
1543.21	0.002461
1552.86	0.002611
1562.5	0.002231
1572.15	0.002221
1581.79	0.0014214
1591.44	0.0015134
1601.08	0.0011597
1610.73	0.0011741
1620.37	0.0011412
1630.01	0.0010223
1639.66	0.0009309
1649.3	0.0010858
1658.95	0.00119
1668.59	0.001611
1678.24	0.001801
1687.88	0.001761
1697.53	0.001132
1707.17	0.0009876
1716.82	0.0009585
1726.46	0.0008403
1736.11	0.0008037
1745.75	0.0009214
1755.4	0.0008182
1765.04	0.0009779
1774.69	0.000896
1784.33	0.0008342
1793.98	0.0007773
1803.62	0.0007341
1813.27	0.00067657
1822.91	0.0008045
1832.55	0.0008424
1842.2	0.0007401
1851.84	0.000728
1861.49	0.00069987
1871.13	0.0008029
1880.78	0.0009354
1890.42	0.0010385
1900.07	0.001037
1909.71	0.0008751
1919.36	0.0008647
1929	0.0007978
1938.65	0.0008045
1948.29	0.0008487
1957.94	0.0008613
1967.58	0.0008888
1977.23	0.0007696
1986.87	0.00062105
1996.52	0.000779
2006.16	0.0008306
2015.81	0.0007507
2025.45	0.0008849
2035.1	0.0008658
2044.74	0.0008542
2054.38	0.0009366
2064.03	0.0010514
2073.67	0.00069129
2083.32	0.0009627
2092.96	0.0007945
2102.61	0.0012643
2112.25	0.0007555
2121.9	0.0009721
2131.54	0.0009601
2141.19	0.0008852
2150.83	0.0008564
2160.48	0.0011246
2170.12	0.0010588
2179.77	0.001142
2189.41	0.0008693
2199.06	0.000926
2208.7	0.0010496
2218.35	0.0009815
2227.99	0.0009825
2237.64	0.0012156
2247.28	0.0012271
2256.92	0.001486
2266.57	0.0012466
2276.21	0.0010133
2285.86	0.000966
2295.5	0.0010195
2305.15	0.0009466
2314.79	0.0010426
2324.44	0.0010912
2334.08	0.0011932
2343.73	0.0009847
2353.37	0.0009459
2363.02	0.0011976
2372.66	0.0011134
2382.31	0.0012222
2391.95	0.0009477
2401.6	0.0010855
2411.24	0.0010442
2420.89	0.0010149
2430.53	0.0009658
2440.18	0.0012016
2449.82	0.0013637
2459.47	0.0015001
2469.11	0.0014186
2478.75	0.0012167
2488.4	0.0008813
2498.04	0.0011755
2507.69	0.001165
2517.33	0.0009141
2526.98	0.0008078
2536.62	0.0010636
2546.27	0.0010702
2555.91	0.0012435
2565.56	0.0011912
2575.2	0.0013334
2584.85	0.0012132
2594.49	0.0011205
2604.14	0.0012331
2613.78	0.0011235
2623.43	0.0008053
2633.07	0.0011595
2642.72	0.001145
2652.36	0.0013771
2662.01	0.0009562
2671.65	0.0010077
2681.29	0.0010814
2690.94	0.0009831
2700.58	0.0010002
2710.23	0.0011945
2719.87	0.0009784
2729.52	0.0009173
2739.16	0.0011602
2748.81	0.001147
2758.45	0.0009362
2768.1	0.0008811
2777.74	0.0009008
2787.39	0.001053
2797.03	0.0008405
2806.68	0.0010676
2816.32	0.0008855
2825.97	0.0009329
2835.61	0.0008079
2845.26	0.0010693
2854.9	0.0012495
2864.55	0.0013037
2874.19	0.0010493
2883.84	0.0008788
2893.48	0.000419
2903.12	0.0010527
2912.77	0.0012272
2922.41	0.0010767
2932.06	0.0008249
2941.7	0.0009989
2951.35	0.0010515
2960.99	0.0009919
2970.64	0.0011033
2980.28	0.00141
2989.93	0.0010363
2999.57	0.0009094
3009.22	0.0008944
3018.86	0.0008699
3028.51	0.0007138
3038.15	0.0009256
3047.8	0.0005814
3057.44	0.0012576
3067.09	0.00066577
3076.73	0.0012637
3086.38	0.0015245
3096.02	0.0015242
3105.67	0.001831
3115.31	0.001851
3124.95	0.001701
3134.6	0.001426
3144.24	0.0013746
3153.89	0.0013604
3163.53	0.0013211
3173.18	0.0008306
3182.82	0.0008964
3192.47	0.0009509
3202.11	0.0010188
3211.76	0.0009466
3221.4	0.0010035
3231.05	0.00068087
3240.69	0.00068044
3250.34	0.0010172
3259.98	0.0007889
3269.63	0.0009161
3279.27	0.0007541
3288.92	0.0010737
3298.56	0.0010579
3308.21	0.0005374
3317.85	0.0013876
3327.49	0.0007198
3337.14	0.000424
3346.78	0.0007042
3356.43	0.000483
3366.07	0.0008637
3375.72	0.000453
3385.36	0.0011766
3395.01	0.0011202
3404.65	0.0011775
3414.3	0.002331
3423.94	0.003311
3433.59	0.005941
3443.23	0.009771
3452.88	0.010401
3462.52	0.010191
3472.17	0.005381
3481.81	0.002351
3491.46	0.0008342
3501.1	0.0009582
3510.75	0.0009537
3520.39	0.0005778
3530.04	0.00046
3539.68	0.000309
3549.32	0.000188
3558.97	0.000467
3568.61	0.0005835
3578.26	7.6e-05
3587.9	0.0008447
3597.55	0.0005579
3607.19	0.0007758
3616.84	0.0009104
3626.48	0.00065976
3636.13	0.000446
3645.77	0.0008775
3655.42	0.00059662
3665.06	0.001011
3674.71	0.00064636
3684.35	0.00062889
3694	0.000494
3703.64	0.00069457
3713.29	0.000479
3722.93	0.00069347
3732.58	0.00046
3742.22	0.000288
3751.86	0.00069687
3761.51	0.0008116
3771.15	0.0007271
3780.8	0.0008899
3790.44	0.000309
3800.09	0.0007633
3809.73	4.1e-05
3819.38	0
3829.02	0.0007666
3838.67	0.00065012
3848.31	0.000741
3857.96	0.00068499
3867.6	0.00067724
3877.25	0.0010517
3886.89	0.0007416
3896.54	0.0007521
3906.18	0.000797
3915.83	0.000124
3925.47	0.0008532
3935.12	0.000482
3944.76	0.0008608
3954.41	0.0011144
3964.05	0.000407
3973.69	0.0011464
3983.34	0.0008177
3992.98	0.0010465
