Infrared Spectrum: N,N-Dimethylthioformamide
Formula: C 3 H 7 N S
CAS: 758-16-7
State: gas
Origin: EPA-IR VAPOR PHASE LIBRARY
1/CM	ABSORBANCE
549.8	0.000761
559.445	0.0004797
569.09	0.000104
578.734	0.000291
588.379	0.000171
598.024	0
607.669	0.0005227
617.313	0.0005978
626.958	0.0008644
636.603	0.0009565
646.248	0.0011169
655.893	0.0011366
665.537	0.0010623
675.182	0.0007061
684.827	0.0004055
694.472	0.0006019
704.116	0.0006518
713.761	0.0005718
723.406	0.0005356
733.051	0.0007123
742.695	0.0009435
752.34	0.0008202
761.985	0.0005447
771.63	0.0006345
781.275	0.000582
790.919	0.0006949
800.564	0.0008567
810.209	0.0013646
819.854	0.00151
829.498	0.0013625
839.143	0.00148
848.788	0.0009718
858.433	0.0011908
868.078	0.00157
877.722	0.00271
887.367	0.00325
897.012	0.00457
906.657	0.00409
916.301	0.00314
925.946	0.00235
935.591	0.00163
945.236	0.0014022
954.88	0.0014059
964.525	0.00215
974.17	0.00342
983.815	0.00473
993.46	0.00495
1003.1	0.00492
1012.75	0.00402
1022.39	0.00452
1032.04	0.00554
1041.68	0.0064
1051.33	0.00662
1060.97	0.00683
1070.62	0.00707
1080.26	0.00806
1089.91	0.01092
1099.55	0.01648
1109.2	0.02643
1118.84	0.04124
1128.49	0.04726
1138.13	0.04827
1147.78	0.03542
1157.42	0.02182
1167.07	0.01351
1176.71	0.00878
1186.36	0.00665
1196	0.0055
1205.64	0.00526
1215.29	0.00451
1224.93	0.00412
1234.58	0.00332
1244.22	0.00301
1253.87	0.0026
1263.51	0.00262
1273.16	0.00272
1282.8	0.00284
1292.45	0.0031
1302.09	0.00322
1311.74	0.00342
1321.38	0.00379
1331.03	0.00448
1340.67	0.00604
1350.32	0.00958
1359.96	0.01616
1369.61	0.02404
1379.25	0.0364
1388.9	0.05481
1398.54	0.06353
1408.18	0.06548
1417.83	0.04714
1427.47	0.03096
1437.12	0.01478
1446.76	0.01516
1456.41	0.02242
1466.05	0.03069
1475.7	0.03823
1485.34	0.04199
1494.99	0.0445
1504.63	0.04861
1514.28	0.05202
1523.92	0.04761
1533.57	0.03783
1543.21	0.02465
1552.86	0.01537
1562.5	0.01078
1572.15	0.00824
1581.79	0.00623
1591.44	0.00462
1601.08	0.00348
1610.73	0.00285
1620.37	0.00247
1630.01	0.00226
1639.66	0.00215
1649.3	0.00195
1658.95	0.00172
1668.59	0.0013871
1678.24	0.0012397
1687.88	0.0011271
1697.53	0.0010808
1707.17	0.0010225
1716.82	0.0009009
1726.46	0.0010067
1736.11	0.0007787
1745.75	0.0007259
1755.4	0.0006152
1765.04	0.0005887
1774.69	0.0006224
1784.33	0.0007829
1793.98	0.0008249
1803.62	0.0008248
1813.27	0.0007651
1822.91	0.0006576
1832.55	0.0005517
1842.2	0.00051216
1851.84	0.0005506
1861.49	0.0005908
1871.13	0.0006115
1880.78	0.00057
1890.42	0.0006744
1900.07	0.0007214
1909.71	0.0007635
1919.36	0.0008191
1929	0.0008051
1938.65	0.0009269
1948.29	0.0009118
1957.94	0.0010266
1967.58	0.0011639
1977.23	0.0012539
1986.87	0.0011934
1996.52	0.0010311
2006.16	0.0009274
2015.81	0.0008005
2025.45	0.0008209
2035.1	0.0007931
2044.74	0.0007156
2054.38	0.0006968
2064.03	0.0007102
2073.67	0.0007196
2083.32	0.000629
2092.96	0.0006687
2102.61	0.0006448
2112.25	0.0006931
2121.9	0.0007984
2131.54	0.0007828
2141.19	0.0005849
2150.83	0.0005642
2160.48	0.00051877
2170.12	0.0005405
2179.77	0.0006668
2189.41	0.0007457
2199.06	0.0008655
2208.7	0.0009185
2218.35	0.0009559
2227.99	0.0009418
2237.64	0.0008332
2247.28	0.0007521
2256.92	0.0006477
2266.57	0.0006621
2276.21	0.0007291
2285.86	0.000781
2295.5	0.000905
2305.15	0.0009132
2314.79	0.0009323
2324.44	0.0008919
2334.08	0.0008321
2343.73	0.0007977
2353.37	0.0009057
2363.02	0.0007372
2372.66	0.0007451
2382.31	0.0007849
2391.95	0.0006966
2401.6	0.0006941
2411.24	0.0007501
2420.89	0.0006835
2430.53	0.0007358
2440.18	0.0006588
2449.82	0.0006278
2459.47	0.0006163
2469.11	0.0007513
2478.75	0.0006876
2488.4	0.0007626
2498.04	0.000826
2507.69	0.0007243
2517.33	0.0007164
2526.98	0.0007677
2536.62	0.0007432
2546.27	0.0007152
2555.91	0.0006162
2565.56	0.000649
2575.2	0.0007506
2584.85	0.0006883
2594.49	0.0008463
2604.14	0.0008484
2613.78	0.0008008
2623.43	0.0008938
2633.07	0.0008881
2642.72	0.000872
2652.36	0.0009027
2662.01	0.0008685
2671.65	0.000835
2681.29	0.0009284
2690.94	0.0009215
2700.58	0.0008653
2710.23	0.001017
2719.87	0.001001
2729.52	0.0009602
2739.16	0.0011474
2748.81	0.0013887
2758.45	0.00159
2768.1	0.00183
2777.74	0.00222
2787.39	0.00308
2797.03	0.00384
2806.68	0.00433
2816.32	0.00436
2825.97	0.00385
2835.61	0.00387
2845.26	0.0048
2854.9	0.00616
2864.55	0.0079
2874.19	0.01001
2883.84	0.01174
2893.48	0.0134
2903.12	0.01551
2912.77	0.01872
2922.41	0.02263
2932.06	0.02645
2941.7	0.02744
2951.35	0.02617
2960.99	0.021
2970.64	0.01564
2980.28	0.01241
2989.93	0.00989
2999.57	0.00755
3009.22	0.00632
3018.86	0.00523
3028.51	0.00418
3038.15	0.00352
3047.8	0.00302
3057.44	0.00257
3067.09	0.00221
3076.73	0.00189
3086.38	0.00178
3096.02	0.00152
3105.67	0.0013789
3115.31	0.0013759
3124.95	0.0012162
3134.6	0.0009084
3144.24	0.0010522
3153.89	0.0009703
3163.53	0.0009086
3173.18	0.0007306
3182.82	0.0006599
3192.47	0.000827
3202.11	0.0007659
3211.76	0.0006588
3221.4	0.0005992
3231.05	0.0005838
3240.69	0.0005742
3250.34	0.0005929
3259.98	0.0006216
3269.63	0.0005505
3279.27	0.00049243
3288.92	0.0006913
3298.56	0.0007129
3308.21	0.0005489
3317.85	0.0005727
3327.49	0.0005738
3337.14	0.0006792
3346.78	0.00051447
3356.43	0.000538
3366.07	0.000608
3375.72	0.0006166
3385.36	0.0007273
3395.01	0.00050266
3404.65	0.0005688
3414.3	0.0006443
3423.94	0.0006272
3433.59	0.00051806
3443.23	0.0005646
3452.88	0.0007418
3462.52	0.0007458
3472.17	0.0005963
3481.81	0.0006123
3491.46	0.000691
3501.1	0.0005603
3510.75	0.0006471
3520.39	0.00046501
3530.04	0.0005886
3539.68	0.0005981
3549.32	0.0005955
3558.97	0.0006716
3568.61	0.00054
3578.26	0.0005921
3587.9	0.0006993
3597.55	0.0007534
3607.19	0.0007299
3616.84	0.0003444
3626.48	0.00051423
3636.13	0.0005669
3645.77	0.0005533
3655.42	0.0006587
3665.06	0.000587
3674.71	0.0005215
3684.35	0.0005525
3694	0.0005752
3703.64	0.00051896
3713.29	0.0007018
3722.93	0.00047218
3732.58	0.0005906
3742.22	0.0007188
3751.86	0.0005323
3761.51	0.0006443
3771.15	0.0006302
3780.8	0.0006835
3790.44	0.0003854
3800.09	0.000649
3809.73	0.00044972
3819.38	0.0006521
3829.02	0.0005974
3838.67	0.0005782
3848.31	0.0008598
3857.96	0.0006247
3867.6	0.0007012
3877.25	0.0007351
3886.89	0.0007505
3896.54	0.0008012
3906.18	0.0008085
3915.83	0.000712
3925.47	0.0007189
3935.12	0.0006287
3944.76	0.0007672
3954.41	0.0009101
3964.05	0.0008671
3973.69	0.0009125
3983.34	0.0008172
3992.98	0.000826
