Infrared Spectrum: Carbon tetrafluoride
Formula: C F 4
CAS: 75-73-0
State: gas
Origin: Sadtler Research Labs Under US-EPA Contract
1/CM	ABSORBANCE
450	0.00152604
462	0.00206464
474	0.00269301
486	0.00206464
498	0.00197487
510	0.00206464
522	0.00188511
534	0.000628369
546	0.00206464
558	0.00197487
570	0.00197487
582	0.00269301
594	0.00215441
606	0.00439858
618	0.00448835
630	0.0129264
642	0.00385998
654	0.00493719
666	0.00421905
678	0.00233394
690	0.00161581
702	0.00305208
714	0.00278278
726	0.00233394
738	0.00260324
750	0.00116697
762	0.00206464
774	0.00233394
786	0.00179534
798	0.00287254
810	0.00287254
822	0.00269301
834	0.00170557
846	0.00287254
858	0.00206464
870	0.00206464
882	0.00206464
894	0.00206464
906	0.00269301
918	0.00260324
930	0.00233394
942	0.00206464
954	0.00251348
966	0.00233394
978	0.00251348
990	0.00206464
1002	0.00197487
1014	0.00170557
1026	0.00170557
1038	0.00197487
1050	0.00206464
1062	0.00197487
1074	0.00233394
1086	0.00188511
1098	0.00197487
1110	0.00188511
1122	0.00206464
1134	0.00251348
1146	0.00188511
1158	0.00251348
1170	0.00188511
1182	0.00161581
1194	0.00143627
1206	0.00152604
1218	0.00251348
1230	0.00619392
1242	0.021185
1254	0.0528728
1266	0.17334
1278	0.89767
1290	0.0737885
1302	0.00251348
1314	0.00134651
1326	0.00179534
1338	0.00134651
1350	0.00170557
1362	0.00152604
1374	0.00161581
1386	0.00152604
1398	0.00134651
1410	0.00116697
1422	0.00152604
1434	0.00188511
1446	0.00188511
1458	0.000987437
1470	0.00197487
1482	0.00152604
1494	0.00251348
1506	0.00278278
1518	0.00323161
1530	0.00233394
1542	0.00314184
1554	0.00287254
1566	0.00305208
1578	0.00179534
1590	0.00134651
1602	0.00152604
1614	0.00143627
1626	0.00161581
1638	0.00179534
1650	0.00152604
1662	0.00125674
1674	0.00152604
1686	0.00152604
1698	0.00143627
1710	0.00179534
1722	0.00161581
1734	0.00152604
1746	0.00152604
1758	0.00125674
1770	0.000628369
1782	0.000628369
1794	0.000628369
1806	0.00134651
1818	0.00134651
1830	0.0010772
1842	0.00161581
1854	0.00134651
1866	0.00170557
1878	0.00152604
1890	0.00161581
1902	0.00170557
1914	0.00170557
1926	0.00170557
1938	0.00170557
1950	0.00143627
1962	0.00125674
1974	0.00161581
1986	0.00170557
1998	0.0010772
2010	0.0010772
2022	0.0010772
2034	0.0010772
2046	0.00143627
2058	0.00116697
2070	0.00152604
2082	0.000987437
2094	0.00152604
2106	0.00134651
2118	0.00161581
2130	0.00161581
2142	0.00152604
2154	0.00152604
2166	0.00188511
2178	0.00457812
2190	0.00287254
2202	0.00125674
2214	0.000807903
2226	0.00089767
2238	0.00089767
2250	0.00089767
2262	0.00125674
2274	0.00116697
2286	0.000538602
2298	0.0010772
2310	0.00134651
2322	0.00179534
2334	0.00206464
2346	0.00188511
2358	0.00260324
2370	0.00251348
2382	0.00125674
2394	0.000807903
2406	0.000807903
2418	0.000628369
2430	0.0010772
2442	0.0010772
2454	0.00134651
2466	0.000807903
2478	0.00125674
2490	0.00125674
2502	0.00116697
2514	0.00116697
2526	0.00125674
2538	0.00170557
2550	0.00125674
2562	0.00161581
2574	0.00170557
2586	0.00161581
2598	0.00116697
2610	0.00125674
2622	0.00125674
2634	0.00089767
2646	0.000987437
2658	0.00116697
2670	0.000628369
2682	0.00116697
2694	0.000987437
2706	0.000538602
2718	0.0010772
2730	0.00116697
2742	0.000807903
2754	0.000538602
2766	0.000538602
2778	0.000628369
2790	0.000538602
2802	0.0010772
2814	0.000538602
2826	0.0010772
2838	0.000628369
2850	0.000628369
2862	0.000807903
2874	0.000448835
2886	0.000448835
2898	0.000448835
2910	0.0010772
2922	0.00089767
2934	0.0010772
2946	0.000448835
2958	0.0010772
2970	0.000807903
2982	0.000448835
2994	0.000538602
3006	0.000538602
3018	0.000987437
3030	0.000538602
3042	0.000628369
3054	0.000538602
3066	0.000448835
3078	0.000628369
3090	0.00089767
3102	0.000448835
3114	0.000448835
3126	0.000448835
3138	0.000807903
3150	0.000538602
3162	0.0010772
3174	0.000359068
3186	0.000448835
3198	0.000538602
3210	0.000448835
3222	0.000987437
3234	0.000448835
3246	0.000179534
3258	0
3270	0.000448835
3282	0.000448835
3294	0.000448835
3306	0.000359068
3318	0.000448835
3330	0
3342	0.000987437
3354	0.000179534
3366	0.000269301
3378	0.00089767
3390	0.000359068
3402	0.000269301
3414	0.000448835
3426	0
3438	0.000359068
3450	0.000448835
3462	0.00089767
3474	0.000807903
3486	0.000269301
3498	0.00089767
3510	8.9767e-05
3522	0.0010772
3534	0.000538602
3546	0.000359068
3558	0.000448835
3570	0.000448835
3582	0.00089767
3594	0.000359068
3606	0.00143627
3618	0.000987437
3630	0.000538602
3642	0.000987437
3654	0.000269301
3666	0.000807903
3678	0.000179534
3690	0.000269301
3702	0.000269301
3714	0.00089767
3726	8.9767e-05
3738	0.000448835
3750	0.000448835
3762	0.000807903
3774	0
3786	0.000269301
3798	0.000179534
3810	0.000359068
3822	0.000359068
3834	0.000359068
3846	0.00089767
3858	0.000359068
3870	0
3882	0
3894	0.000179534
3906	0
3918	0.000359068
3930	0
3942	0
3954	0.000179534
3966	0.000807903
