Infrared Spectrum: Methane, tetrafluo-
Formula: C F4
CAS: 75-73-0
State: GAS (100 mmHg, N2 ADDED, TOTAL PRESSURE 600 mmHg)
Class: COBLENTZ
Instrument: DOW KBr FOREPRISM-GRATING
Instrument parameters: GRATING CHANGED AT 5.0, 7.5, 15.0 MICRON
Sampling: TRANSMISSION
Path length: 5 CM
Resolution: 2
Origin: DOW CHEMICAL COMPANY
1/CM	TRANSMITTANCE
461	0.8552
470	0.8595
479	0.8619
488	0.8609
497	0.8577
506	0.8559
515	0.8536
524	0.8509
533	0.8506
542	0.851
551	0.8527
560	0.8549
569	0.8596
578	0.8627
587	0.8626
596	0.8436
605	0.7252
614	0.5794
623	0.6449
632	0.1808
641	0.6983
650	0.4992
659	0.5981
668	0.7631
677	0.848
686	0.866
695	0.8714
704	0.8753
713	0.8819
722	0.8819
731	0.8784
740	0.8757
749	0.8751
758	0.8741
767	0.873
776	0.8721
785	0.8747
794	0.8804
803	0.8806
812	0.8798
821	0.8792
830	0.8792
839	0.8786
848	0.878
857	0.8773
866	0.8759
875	0.8727
884	0.879
893	0.8791
902	0.8772
911	0.8776
920	0.8831
929	0.8884
938	0.8914
947	0.8936
956	0.8933
965	0.8937
974	0.8938
983	0.8939
992	0.8941
1001	0.8943
1010	0.8934
1019	0.8926
1028	0.8926
1037	0.8927
1046	0.8864
1055	0.8631
1064	0.8468
1073	0.848
1082	0.8746
1091	0.8894
1100	0.8921
1109	0.8948
1118	0.8966
1127	0.8978
1136	0.8909
1145	0.8796
1154	0.8788
1163	0.8909
1172	0.8902
1181	0.8825
1190	0.8961
1199	0.8943
1208	0.8908
1217	0.8831
1226	0.8567
1235	0.3714
1244	0.1118
1253	0.0265
1262	0.0021
1271	0.0014
1280	0.004
1289	0.0728
1298	0.4589
1307	0.8354
1316	0.852
1325	0.8567
1334	0.8676
1343	0.8329
1352	0.8665
1361	0.8572
1370	0.8615
1379	0.8469
1388	0.8498
1397	0.8723
1406	0.8742
1415	0.8744
1424	0.873
1433	0.8701
1442	0.8668
1451	0.8631
1460	0.8588
1469	0.8548
1478	0.8511
1487	0.8507
1496	0.8173
1505	0.7925
1514	0.664
1523	0.6225
1532	0.7226
1541	0.2272
1550	0.7274
1559	0.667
1568	0.7583
1577	0.8563
1586	0.8712
1595	0.8711
1604	0.8688
1613	0.8676
1622	0.8675
1631	0.8678
1640	0.8683
1649	0.8685
1658	0.8657
1667	0.859
1676	0.8504
1685	0.8405
1694	0.8291
1703	0.8192
1712	0.8216
1721	0.8359
1730	0.832
1739	0.8504
1748	0.8632
1757	0.8689
1766	0.871
1775	0.8717
1784	0.872
1793	0.8718
1802	0.8711
1811	0.8701
1820	0.8695
1829	0.8688
1838	0.8675
1847	0.8656
1856	0.8627
1865	0.857
1874	0.8478
1883	0.8323
1892	0.8223
1901	0.8016
1910	0.8005
1919	0.7931
1928	0.822
1937	0.843
1946	0.8598
1955	0.8594
1964	0.869
1973	0.8719
1982	0.8737
1991	0.8756
2000	0.8769
2009	0.8778
2018	0.8785
2027	0.8789
2036	0.8792
2045	0.8794
2054	0.8794
2063	0.879
2072	0.8786
2081	0.8782
2090	0.8775
2099	0.8766
2108	0.8757
2117	0.8741
2126	0.8725
2135	0.8645
2144	0.8443
2153	0.8288
2162	0.8669
2171	0.8443
2180	0.8067
2189	0.4283
2198	0.2822
2207	0.869
2216	0.8761
2225	0.878
2234	0.8791
2243	0.8794
2252	0.8795
2261	0.8794
2270	0.8785
2279	0.8776
2288	0.8769
2297	0.8763
2306	0.8759
2315	0.8755
2324	0.8752
2333	0.8755
2342	0.8759
2351	0.876
2360	0.8723
2369	0.8762
2378	0.8787
2387	0.8803
2396	0.8804
2405	0.8799
2414	0.8791
2423	0.8778
2432	0.8766
2441	0.8752
2450	0.8729
2459	0.8704
2468	0.8679
2477	0.865
2486	0.8605
2495	0.8518
2504	0.8373
2513	0.8158
2522	0.7912
2531	0.7651
2540	0.7371
2549	0.715
2558	0.6966
2567	0.7044
2576	0.708
2585	0.7659
2594	0.8017
2603	0.8207
2612	0.8411
2621	0.8598
2630	0.8706
2639	0.8766
2648	0.8786
2657	0.879
2666	0.8792
2675	0.8794
2684	0.8795
2693	0.8792
2702	0.8788
2711	0.8783
2720	0.8776
2729	0.8769
2738	0.8762
2747	0.8759
2756	0.8756
2765	0.8753
2774	0.875
2783	0.8744
2792	0.8739
2801	0.8733
2810	0.8732
2819	0.8731
2828	0.873
2837	0.8742
2846	0.8754
2855	0.8746
2864	0.872
2873	0.8717
2882	0.8721
2891	0.8729
2900	0.8742
2909	0.8755
2918	0.8734
2927	0.8638
2936	0.8603
2945	0.8608
2954	0.8617
2963	0.863
2972	0.8646
2981	0.8656
2990	0.8666
2999	0.8676
3008	0.8681
3017	0.8684
3026	0.8687
3035	0.8689
3044	0.8692
3053	0.8694
3062	0.8696
3071	0.869
3080	0.8685
3089	0.8689
3098	0.8709
3107	0.8744
3116	0.8762
3125	0.8766
3134	0.8766
3143	0.8762
3152	0.8757
3161	0.8752
3170	0.8751
3179	0.8754
3188	0.8757
3197	0.8761
3206	0.8769
3215	0.8777
3224	0.8785
3233	0.8793
3242	0.8802
3251	0.881
3260	0.8815
3269	0.8817
3278	0.8819
3287	0.882
3296	0.8822
3305	0.8823
3314	0.8824
3323	0.8824
3332	0.8823
3341	0.8823
3350	0.8823
3359	0.8822
3368	0.8821
3377	0.882
3386	0.8818
3395	0.8817
3404	0.8813
3413	0.8802
3422	0.8792
3431	0.8779
3440	0.8767
3449	0.8765
3458	0.8764
3467	0.8766
3476	0.8769
3485	0.8776
3494	0.8782
3503	0.8788
3512	0.8794
3521	0.88
3530	0.8807
3539	0.8816
3548	0.8886
3557	0.8899
3566	0.8904
3575	0.8907
3584	0.891
3593	0.8912
3602	0.8913
3611	0.8915
3620	0.8915
3629	0.8909
3638	0.8903
3647	0.8897
3656	0.8891
3665	0.8885
3674	0.8878
3683	0.8872
3692	0.8874
3701	0.8876
3710	0.8876
3719	0.8874
3728	0.887
3737	0.8863
3746	0.8856
3755	0.8836
3764	0.8815
3773	0.8776
3782	0.8753
3791	0.8828
