Infrared Spectrum: 1,1-DIBROMO-1-CHLORO ETHANE
Formula: C2 H3 Br2 Cl
CAS: 594-17-2
State: SOLUTION (10% CCl4 FOR 5000-1330, 10% CS2 FOR 1330-625 CM^-^1)
Class: COBLENTZ
Instrument: Not specified, most likely a prism, grating, or hybrid spectrometer.
Sampling: TRANSMISSION
Path length: 0.0130 CM, 0.0129 CM
Resolution: 4
Origin: DOW CHEMICAL COMPANY
MICROMETERS	TRANSMITTANCE
2.041	0.855
2.08216	0.867
2.12331	0.867
2.16447	0.87
2.20563	0.872
2.24678	0.87
2.28794	0.872
2.3291	0.881
2.37025	0.881
2.41141	0.888
2.45256	0.888
2.49372	0.893
2.53488	0.896
2.57603	0.9
2.61719	0.898
2.65835	0.9
2.6995	0.901
2.74066	0.901
2.78182	0.901
2.82297	0.898
2.86413	0.895
2.90529	0.891
2.94644	0.877
2.9876	0.879
3.02875	0.882
3.06991	0.896
3.11107	0.9
3.15222	0.9
3.19338	0.901
3.23454	0.905
3.27569	0.907
3.31685	0.891
3.35801	0.886
3.39916	0.898
3.44032	0.913
3.48148	0.913
3.52263	0.922
3.56379	0.924
3.60494	0.925
3.6461	0.929
3.68726	0.938
3.72841	0.939
3.76957	0.944
3.81073	0.944
3.85188	0.943
3.89304	0.944
3.9342	0.946
3.97535	0.948
4.01651	0.953
4.05767	0.95
4.09882	0.941
4.13998	0.95
4.18114	0.953
4.22229	0.956
4.26345	0.953
4.3046	0.943
4.34576	0.939
4.38692	0.946
4.42807	0.956
4.46923	0.96
4.51039	0.962
4.55154	0.963
4.5927	0.963
4.63386	0.963
4.67501	0.962
4.71617	0.96
4.75733	0.958
4.79848	0.958
4.83964	0.958
4.88079	0.956
4.92195	0.962
4.96311	0.962
5.00426	0.96
5.04542	0.96
5.08658	0.967
5.12773	0.977
5.16889	0.977
5.21005	0.975
5.2512	0.972
5.29236	0.97
5.33352	0.97
5.37467	0.969
5.41583	0.965
5.45698	0.96
5.49814	0.962
5.5393	0.965
5.58045	0.965
5.62161	0.965
5.66277	0.965
5.70392	0.96
5.74508	0.958
5.78624	0.953
5.82739	0.953
5.86855	0.955
5.90971	0.955
5.95086	0.955
5.99202	0.956
6.03318	0.948
6.07433	0.938
6.11549	0.927
6.15664	0.898
6.1978	0.838
6.23896	0.75
6.28011	0.652
6.32127	0.623
6.36243	0.569
6.40358	0.499
6.44474	0.454
6.4859	0.509
6.52705	0.602
6.56821	0.652
6.60937	0.717
6.65052	0.807
6.69168	0.851
6.73283	0.884
6.77399	0.901
6.81515	0.901
6.8563	0.893
6.89746	0.783
6.93862	0.685
6.97977	0.812
7.02093	0.872
7.06209	0.882
7.10324	0.893
7.1444	0.898
7.18556	0.848
7.22671	0.683
7.26787	0.707
7.30902	0.905
7.35018	0.912
7.39134	0.925
7.43249	0.936
7.47365	0.938
7.51481	0.938
7.55596	0.938
7.59712	0.938
7.63828	0.936
7.67943	0.936
7.72059	0.936
7.76175	0.936
7.8029	0.936
7.84406	0.936
7.88522	0.932
7.92637	0.927
7.96753	0.925
8.00868	0.925
8.04984	0.925
8.091	0.924
8.13215	0.92
8.17331	0.92
8.21447	0.922
8.25562	0.922
8.29678	0.924
8.33794	0.925
8.37909	0.917
8.42025	0.912
8.46141	0.919
8.50256	0.922
8.54372	0.92
8.58487	0.919
8.62603	0.917
8.66719	0.908
8.70834	0.903
8.7495	0.898
8.79066	0.896
8.83181	0.893
8.87297	0.889
8.91413	0.888
8.95528	0.891
8.99644	0.896
9.0376	0.886
9.07875	0.858
9.11991	0.829
9.16106	0.779
9.20222	0.676
9.24338	0.473
9.28453	0.208
9.32569	0.049
9.36685	0.049
9.408	0.237
9.44916	0.499
9.49032	0.542
9.53147	0.628
9.57263	0.786
9.61379	0.833
9.65494	0.867
9.6961	0.877
9.73726	0.884
9.77841	0.896
9.81957	0.9
9.86072	0.9
9.90188	0.9
9.94304	0.907
9.98419	0.908
10.0254	0.907
10.0665	0.901
10.1077	0.898
10.1488	0.901
10.19	0.903
10.2311	0.905
10.2723	0.91
10.3134	0.913
10.3546	0.915
10.3958	0.919
10.4369	0.919
10.4781	0.919
10.5192	0.919
10.5604	0.919
10.6015	0.919
10.6427	0.919
10.6839	0.919
10.725	0.919
10.7662	0.919
10.8073	0.919
10.8485	0.919
10.8896	0.919
10.9308	0.919
10.9719	0.915
11.0131	0.912
11.0543	0.907
11.0954	0.903
11.1366	0.898
11.1777	0.889
11.2189	0.87
11.26	0.855
11.3012	0.838
11.3424	0.817
11.3835	0.802
11.4247	0.79
11.4658	0.781
11.507	0.771
11.5481	0.757
11.5893	0.74
11.6305	0.728
11.6716	0.717
11.7128	0.717
11.7539	0.729
11.7951	0.762
11.8362	0.796
11.8774	0.822
11.9185	0.841
11.9597	0.857
12.0009	0.867
12.042	0.87
12.0832	0.872
12.1243	0.877
12.1655	0.881
12.2066	0.882
12.2478	0.881
12.289	0.879
12.3301	0.87
12.3713	0.864
12.4124	0.865
12.4536	0.869
12.4947	0.865
12.5359	0.864
12.577	0.862
12.6182	0.858
12.6594	0.853
12.7005	0.85
12.7417	0.848
12.7828	0.846
12.824	0.846
12.8651	0.841
12.9063	0.834
12.9475	0.831
12.9886	0.827
13.0298	0.819
13.0709	0.81
13.1121	0.807
13.1532	0.803
13.1944	0.803
13.2356	0.805
13.2767	0.805
13.3179	0.807
13.359	0.802
13.4002	0.802
13.4413	0.798
13.4825	0.791
13.5236	0.788
13.5648	0.784
13.606	0.777
13.6471	0.769
13.6883	0.762
13.7294	0.76
13.7706	0.759
13.8117	0.753
13.8529	0.748
13.8941	0.731
13.9352	0.722
13.9764	0.705
14.0175	0.69
14.0587	0.672
14.0998	0.65
14.141	0.619
14.1822	0.564
14.2233	0.499
14.2645	0.418
14.3056	0.308
14.3468	0.172
14.3879	0.096
14.4291	0.039
14.4702	0.027
14.5114	0.027
14.5526	0.061
14.5937	0.113
14.6349	0.191
14.676	0.278
14.7172	0.34
14.7583	0.409
14.7995	0.449
14.8407	0.473
14.8818	0.495
14.923	0.504
14.9641	0.514
15.0053	0.521
15.0464	0.519
15.0876	0.518
15.1287	0.516
15.1699	0.509
15.2111	0.497
15.2522	0.483
15.2934	0.473
15.3345	0.45
15.3757	0.433
15.4168	0.407
15.458	0.373
15.4992	0.339
15.5403	0.32
15.5815	0.313
15.6226	0.302
15.6638	0.292
15.7049	0.271
15.7461	0.244
15.7873	0.216
15.8284	0.192
15.8696	0.189
15.9107	0.191
