Infrared Spectrum: Acetamide, N,N-dimethyl-
Formula: C 4 H 9 N O
CAS: 127-19-5
State: gas
Origin: Sadtler Research Labs Under US-EPA Contract
1/CM	ABSORBANCE
450	0.023131
462	0.0214973
474	0.0161659
486	0.00619121
498	0.00146181
510	0.00180577
522	0.0023217
534	0.000343956
546	0.000687912
558	0.00266566
570	0.0175418
582	0.039297
594	0.0411887
606	0.0180577
618	0.00584725
630	0.0015478
642	0.00257967
654	0.00103187
666	0.000429945
678	0.00163379
690	0.00189176
702	0.00326758
714	0.00472939
726	0.00576126
738	0.00490137
750	0.0023217
762	0.00180577
774	0.00128984
786	0.00111786
798	0.00223571
810	0.0023217
822	0.00206374
834	0.00128984
846	0.00163379
858	0.00223571
870	0.00189176
882	0.00206374
894	0.00206374
906	0.00335357
918	0.00352555
930	0.00447143
942	0.00653516
954	0.00851291
966	0.0134143
978	0.0269146
990	0.0668135
1002	0.111872
1014	0.106626
1026	0.0722308
1038	0.0484118
1050	0.0476379
1062	0.0402429
1074	0.0270865
1086	0.0175418
1098	0.0142742
1110	0.0142742
1122	0.0168538
1134	0.0223571
1146	0.0338797
1158	0.0605363
1170	0.105423
1182	0.146869
1194	0.131993
1206	0.0791959
1218	0.0351695
1230	0.0249368
1242	0.0313
1254	0.0577846
1266	0.0841832
1278	0.085731
1290	0.0533132
1302	0.0306121
1314	0.030956
1326	0.0412747
1338	0.0667275
1350	0.0969956
1362	0.124684
1374	0.214199
1386	0.364765
1398	0.41825
1410	0.323577
1422	0.187026
1434	0.116429
1446	0.123738
1458	0.132767
1470	0.131649
1482	0.105165
1494	0.0837533
1506	0.070511
1518	0.0638898
1530	0.0665555
1542	0.0614821
1554	0.054861
1566	0.0355135
1578	0.0240769
1590	0.0197775
1602	0.0189176
1614	0.0214973
1626	0.0288923
1638	0.0448003
1650	0.0660396
1662	0.149535
1674	0.477841
1686	0.856708
1698	0.834953
1710	0.375342
1722	0.0881387
1734	0.0444563
1746	0.0298382
1758	0.0140162
1770	0.00558929
1782	0.00507335
1794	0.00369753
1806	0.00558929
1818	0.00438544
1830	0.00128984
1842	0.0015478
1854	0.00223571
1866	0.000773901
1878	0.00197775
1890	0.00137582
1902	0.00249368
1914	0.00197775
1926	0.00171978
1938	0.00163379
1950	0.00137582
1962	0.00137582
1974	0.00128984
1986	0.000945879
1998	0.000945879
2010	0.000773901
2022	0.00103187
2034	0.00085989
2046	0.00120385
2058	0.00137582
2070	0.00206374
2082	0.00257967
2094	0.0030956
2106	0.00447143
2118	0.00584725
2130	0.00584725
2142	0.00369753
2154	0.00240769
2166	0.00128984
2178	0.00180577
2190	0.00223571
2202	0.00214973
2214	0.00163379
2226	0.00120385
2238	0.00111786
2250	0.000601923
2262	0.000687912
2274	0.000515934
2286	0.000601923
2298	0.000429945
2310	0.000515934
2322	0.000687912
2334	0.000515934
2346	0.000945879
2358	0.00085989
2370	0.00146181
2382	0.000945879
2394	0.00103187
2406	0.0015478
2418	0.00163379
2430	0.00103187
2442	0.000171978
2454	8.5989e-05
2466	0.000601923
2478	0.000257967
2490	0.000343956
2502	0.000687912
2514	0.00111786
2526	0.00111786
2538	0.00171978
2550	0.00171978
2562	0.00111786
2574	0.000687912
2586	0.00111786
2598	0.00120385
2610	0.00120385
2622	0.00180577
2634	0.00223571
2646	0.00275165
2658	0.00275165
2670	0.00275165
2682	0.00275165
2694	0.00343956
2706	0.00352555
2718	0.00386951
2730	0.00481538
2742	0.00524533
2754	0.00644918
2766	0.00868489
2778	0.0127264
2790	0.0192615
2802	0.0271725
2814	0.0365453
2826	0.0445423
2838	0.0486698
2850	0.0589885
2862	0.0765302
2874	0.0926102
2886	0.103531
2898	0.116687
2910	0.138872
2922	0.171376
2934	0.195797
2946	0.184962
2958	0.137926
2970	0.0926961
2982	0.0711129
2994	0.0540871
3006	0.0538291
3018	0.0584725
3030	0.0583005
3042	0.0481538
3054	0.0343096
3066	0.023733
3078	0.0181437
3090	0.0149621
3102	0.0118665
3114	0.0093728
3126	0.00696511
3138	0.00584725
3150	0.00447143
3162	0.00361154
3174	0.00300962
3186	0.00223571
3198	0.00111786
3210	0.00111786
3222	0.000773901
3234	0.000773901
3246	0.00085989
3258	0.00085989
3270	0.00085989
3282	0.00128984
3294	0.00085989
3306	0.00128984
3318	0.00137582
3330	0.00240769
3342	0.00481538
3354	0.00825494
3366	0.00980275
3378	0.00842692
3390	0.00343956
3402	0.00283764
3414	0.00146181
3426	0.000687912
3438	0.00128984
3450	0.00180577
3462	0.00146181
3474	0.0015478
3486	0.00128984
3498	0.00137582
3510	0.00085989
3522	0.00163379
3534	0.000945879
3546	0.000945879
3558	0.000515934
3570	0.00137582
3582	0.00111786
3594	0.000687912
3606	0.00120385
3618	0.000687912
3630	0.000601923
3642	0.00085989
3654	0.000773901
3666	0.000687912
3678	0.000945879
3690	0
3702	0.000515934
3714	0.000687912
3726	0.00085989
3738	0.000601923
3750	0.000257967
3762	0.00120385
3774	0.000687912
3786	0.00137582
3798	0.0015478
3810	0.00103187
3822	8.5989e-05
3834	0.000601923
3846	0.000257967
3858	0.00163379
3870	0.000773901
3882	0.00180577
3894	0.00180577
3906	0.00180577
3918	0.00189176
3930	0.00146181
3942	0.00103187
3954	0.00146181
3966	0.00171978
