Infrared Spectrum: N,N-DIMETHYLACETAMIDE
Formula: C4 H9 N O
CAS: 127-19-5
State: SOLUTION (10% IN CCl4 FOR 3600-1330 CM^-^1, 10% IN CS2 FOR 1330-600 CM^-^1)
Boiling point: 71 C AT 25 mmHg
Class: COBLENTZ III
Instrument: BECKMAN IR-7 (GRATING)
Instrument parameters: GRATING CHANGES AT 3000, 2200, 1150 CM^-^1
Sampling: TRANSMISSION
Path length: 0.01 CM, 0.01 CM
Resolution: 4
Origin: WESTERN REGIONAL RES. USDA
1/CM	TRANSMITTANCE
598.701	0.614
607.792	0.639
616.883	0.72
625.974	0.752
635.065	0.758
644.156	0.745
653.247	0.706
662.337	0.729
671.428	0.77
680.519	0.774
689.61	0.794
698.701	0.801
707.792	0.804
716.883	0.804
725.974	0.801
735.065	0.755
744.156	0.802
753.247	0.814
762.338	0.818
771.429	0.821
780.52	0.822
789.61	0.818
798.701	0.816
807.792	0.814
816.883	0.808
825.974	0.814
835.065	0.812
844.156	0.785
853.247	0.696
862.338	0.688
871.429	0.718
880.52	0.745
889.611	0.78
898.702	0.809
907.792	0.817
916.883	0.814
925.974	0.814
935.065	0.807
944.156	0.798
953.247	0.78
962.338	0.756
971.429	0.775
980.52	0.752
989.611	0.697
998.702	0.5111
1007.79	0.097
1016.88	0.255
1025.97	0.497
1035.07	0.445
1044.16	0.581
1053.25	0.538
1062.34	0.528
1071.43	0.648
1080.52	0.713
1089.61	0.734
1098.7	0.747
1107.79	0.751
1116.88	0.746
1125.97	0.737
1135.07	0.721
1144.16	0.688
1153.25	0.63
1162.34	0.536
1171.43	0.311
1180.52	0.178
1189.61	0.253
1198.7	0.471
1207.79	0.597
1216.88	0.654
1225.97	0.679
1235.07	0.678
1244.16	0.647
1253.25	0.536
1262.34	0.254
1271.43	0.349
1280.52	0.56
1289.61	0.645
1298.7	0.668
1307.79	0.664
1316.88	0.649
1325.98	0.615
1335.07	0.573
1344.16	0.483
1353.25	0.154
1362.34	0.354
1371.43	0.362
1380.52	0.126
1389.61	0.001
1398.7	0.027
1407.79	0.018
1416.88	0.104
1425.98	0.178
1435.07	0.176
1444.16	0.156
1453.25	0.167
1462.34	0.169
1471.43	0.167
1480.52	0.144
1489.61	0.109
1498.7	0.095
1507.79	0.143
1516.88	0.229
1525.98	0.275
1535.07	0.288
1544.16	0.21
1553.25	0.254
1562.34	0.345
1571.43	0.413
1580.52	0.432
1589.61	0.438
1598.7	0.436
1607.79	0.383
1616.88	0.29
1625.98	0.085
1635.07	0.003
1644.16	0
1653.25	0
1662.34	0
1671.43	0.015
1680.52	0.2
1689.61	0.367
1698.7	0.496
1707.79	0.577
1716.88	0.619
1725.98	0.637
1735.07	0.63
1744.16	0.579
1753.25	0.594
1762.34	0.701
1771.43	0.738
1780.52	0.746
1789.61	0.753
1798.7	0.756
1807.79	0.759
1816.89	0.765
1825.98	0.771
1835.07	0.772
1844.16	0.773
1853.25	0.777
1862.34	0.78
1871.43	0.781
1880.52	0.776
1889.61	0.778
1898.7	0.78
1907.79	0.774
1916.89	0.765
1925.98	0.771
1935.07	0.777
1944.16	0.773
1953.25	0.771
1962.34	0.777
1971.43	0.773
1980.52	0.772
1989.61	0.772
1998.7	0.771
2007.79	0.7721
2016.89	0.7727
2025.98	0.774
2035.07	0.775
2044.16	0.776
2053.25	0.776
2062.34	0.776
2071.43	0.777
2080.52	0.778
2089.61	0.779
2098.7	0.78
2107.79	0.78
2116.89	0.78
2125.98	0.7808
2135.07	0.7814
2144.16	0.783
2153.25	0.783
2162.34	0.783
2171.43	0.783
2180.52	0.783
2189.61	0.783
2198.7	0.782
2207.79	0.781
2216.89	0.7774
2225.98	0.7736
2235.07	0.769
2244.16	0.7664
2253.25	0.7682
2262.34	0.7756
2271.43	0.781
2280.52	0.781
2289.61	0.7804
2298.7	0.7748
2307.8	0.7732
2316.89	0.7724
2325.98	0.774
2335.07	0.7766
2344.16	0.7792
2353.25	0.783
2362.34	0.783
2371.43	0.783
2380.52	0.7825
2389.61	0.7809
2398.7	0.7755
2407.8	0.771
2416.89	0.7739
2425.98	0.78
2435.07	0.786
2444.16	0.7877
2453.25	0.789
2462.34	0.79
2471.43	0.789
2480.52	0.7889
2489.61	0.7863
2498.7	0.785
2507.8	0.784
2516.89	0.7825
2525.98	0.78
2535.07	0.7726
2544.16	0.7713
2553.25	0.772
2562.34	0.7794
2571.43	0.785
2580.52	0.785
2589.61	0.7847
2598.7	0.784
2607.8	0.7825
2616.89	0.7779
2625.98	0.776
2635.07	0.7775
2644.16	0.7808
2653.25	0.7826
2662.34	0.781
2671.43	0.7794
2680.52	0.7778
2689.61	0.7752
2698.7	0.771
2707.8	0.769
2716.89	0.769
2725.98	0.7668
2735.07	0.7642
2744.16	0.7606
2753.25	0.756
2762.34	0.7508
2771.43	0.7424
2780.52	0.7283
2789.61	0.7049
2798.71	0.6801
2807.8	0.6477
2816.89	0.6101
2825.98	0.5809
2835.07	0.589
2844.16	0.5674
2853.25	0.5132
2862.34	0.4484
2871.43	0.3881
2880.52	0.362
2889.61	0.3433
2898.71	0.3203
2907.8	0.2892
2916.89	0.2187
2925.98	0.1447
2935.07	0.1269
2944.16	0.1489
2953.25	0.1967
2962.34	0.2474
2971.43	0.3417
2980.52	0.3864
2989.61	0.4282
2998.71	0.4971
3007.8	0.5207
3016.89	0.4939
3025.98	0.468
3035.07	0.508
3044.16	0.5431
3053.25	0.5827
3062.34	0.6434
3071.43	0.671
3080.52	0.6938
3089.61	0.7093
3098.71	0.721
3107.8	0.7283
3116.89	0.7329
3125.98	0.7375
3135.07	0.7421
3144.16	0.7477
3153.25	0.7525
3162.34	0.7577
3171.43	0.762
3180.52	0.766
3189.61	0.769
3198.71	0.7702
3207.8	0.771
3216.89	0.772
3225.98	0.771
3235.07	0.771
3244.16	0.771
3253.25	0.7694
3262.34	0.7668
3271.43	0.758
3280.52	0.741
3289.62	0.7288
3298.71	0.727
3307.8	0.7352
3316.89	0.746
3325.98	0.7583
3335.07	0.7694
3344.16	0.7738
3353.25	0.7754
3362.34	0.776
3371.43	0.7744
3380.52	0.771
3389.62	0.7682
3398.71	0.766
3407.8	0.764
3416.89	0.7614
3425.98	0.7589
3435.07	0.7543
3444.16	0.7497
3453.25	0.747
3462.34	0.745
3471.43	0.745
3480.52	0.7477
3489.62	0.7533
3498.71	0.7549
3507.8	0.756
3516.89	0.757
3525.98	0.758
3535.07	0.76
3544.16	0.762
3553.25	0.7675
3562.34	0.7711
3571.43	0.7737
3580.52	0.7743
3589.62	0.7779
3598.71	0.779
3607.8	0.78
3616.89	0.781
3625.98	0.7843
3635.07	0.786
3644.16	0.7776
3653.25	0.7731
3662.34	0.7846
3671.43	0.7877
3680.52	0.7612
3689.62	0.7534
3698.71	0.7711
3707.8	0.7786
3716.89	0.7743
3725.98	0.7728
3735.07	0.7809
3744.16	0.784
3753.25	0.7844
3762.34	0.7818
3771.43	0.7764
3780.53	0.7777
3789.62	0.783
3798.71	0.7822
3807.8	0.7742
3816.89	0.7796
3825.98	0.7824
3835.07	0.785
3844.16	0.785
3853.25	0.7838
3862.34	0.7742
3871.43	0.7788
3880.53	0.7861
3889.62	0.7769
3898.71	0.7775
3907.8	0.7808
3916.89	0.7676
3925.98	0.7659
3935.07	0.7716
3944.16	0.7749
3953.25	0.7702
3962.34	0.7687
3971.43	0.767
