Infrared Spectrum: N,N-DIMETHYL ACETAMIDE
Formula: C4 H9 N O
CAS: 127-19-5
Class: COBLENTZ
Instrument: Not specified, most likely a prism, grating, or hybrid spectrometer.
Sampling: TRANSMISSION
Resolution: 4
Origin: WYANDOTTE CHEMICALS CORP., WYANDOTTE, MICHIGAN, USA
MICROMETERS	TRANSMITTANCE
2	0.976
2.03992	0.976
2.07984	0.976
2.11976	0.971
2.15967	0.95
2.19959	0.916
2.23951	0.926
2.27943	0.95
2.31935	0.96
2.35927	0.968
2.39919	0.97
2.43911	0.968
2.47902	0.971
2.51894	0.98
2.55886	0.985
2.59878	0.99
2.6387	0.991
2.67862	0.988
2.71854	0.981
2.75846	0.95
2.79837	0.893
2.83829	0.89
2.87821	0.895
2.91813	0.91
2.95805	0.931
2.99797	0.941
3.03789	0.931
3.07781	0.88
3.11772	0.928
3.15764	0.905
3.19756	0.865
3.23748	0.825
3.2774	0.717
3.31732	0.503
3.35724	0.302
3.39716	0.192
3.43707	0.3
3.47699	0.37
3.51691	0.553
3.55683	0.667
3.59675	0.777
3.63667	0.9
3.67659	0.926
3.71651	0.941
3.75642	0.96
3.79634	0.975
3.83626	0.973
3.87618	0.968
3.9161	0.975
3.95602	0.973
3.99594	0.97
4.03586	0.975
4.07577	0.978
4.11569	0.98
4.15561	0.983
4.19553	0.98
4.23545	0.971
4.27537	0.973
4.31529	0.985
4.35521	0.991
4.39512	0.996
4.43504	0.996
4.47496	0.993
4.51488	0.988
4.5548	0.975
4.59472	0.975
4.63464	0.981
4.67456	0.99
4.71447	0.981
4.75439	0.958
4.79431	0.97
4.83423	0.988
4.87415	0.998
4.91407	1.001
4.95399	1.003
4.99391	1.003
5.03382	0.996
5.07374	0.99
5.11366	0.998
5.15358	1.003
5.1935	1.003
5.23342	1.001
5.27334	0.991
5.31326	1.001
5.35317	1.004
5.39309	1.006
5.43301	1.006
5.47293	1
5.51285	0.996
5.55277	0.983
5.59269	0.973
5.63261	0.953
5.67252	0.928
5.71244	0.78
5.75236	0.734
5.79228	0.79
5.8322	0.71
5.87212	0.604
5.91204	0.5
5.95196	0.26
5.99187	0.034
6.03179	0.036
6.07171	0.033
6.11163	0.059
6.15155	0.176
6.19147	0.353
6.23139	0.493
6.27131	0.599
6.31122	0.579
6.35114	0.541
6.39106	0.358
6.43098	0.335
6.4709	0.42
6.51082	0.34
6.55074	0.214
6.59066	0.142
6.63057	0.076
6.67049	0.116
6.71041	0.136
6.75033	0.154
6.79025	0.141
6.83017	0.142
6.87009	0.121
6.91001	0.116
6.94992	0.114
6.98984	0.098
7.02976	0.051
7.06968	0.039
7.1096	0.036
7.14952	0.038
7.18944	0.091
7.22936	0.212
7.26927	0.327
7.30919	0.317
7.34911	0.189
7.38903	0.342
7.42895	0.513
7.46887	0.631
7.50879	0.684
7.54871	0.72
7.58862	0.739
7.62854	0.757
7.66846	0.754
7.70838	0.745
7.7483	0.71
7.78822	0.664
7.82814	0.481
7.86805	0.166
7.90797	0.269
7.94789	0.455
7.98781	0.599
8.02773	0.672
8.06765	0.712
8.10757	0.729
8.14749	0.724
8.1874	0.689
8.22732	0.639
8.26724	0.583
8.30716	0.47
8.34708	0.35
8.387	0.176
8.42692	0.101
8.46684	0.225
8.50675	0.282
8.54667	0.481
8.58659	0.591
8.62651	0.674
8.66643	0.722
8.70635	0.752
8.74627	0.78
8.78619	0.805
8.8261	0.828
8.86602	0.837
8.90594	0.838
8.94586	0.838
8.98578	0.838
9.0257	0.835
9.06562	0.832
9.10554	0.825
9.14545	0.818
9.18537	0.799
9.22529	0.765
9.26521	0.727
9.30513	0.647
9.34505	0.556
9.38497	0.483
9.42489	0.461
9.4648	0.506
9.50472	0.563
9.54464	0.556
9.58456	0.495
9.62448	0.428
9.6644	0.418
9.70432	0.45
9.74424	0.397
9.78415	0.265
9.82407	0.116
9.86399	0.056
9.90391	0.076
9.94383	0.26
9.98375	0.436
10.0237	0.596
10.0636	0.691
10.1035	0.74
10.1434	0.777
10.1833	0.805
10.2233	0.828
10.2632	0.845
10.3031	0.855
10.343	0.852
10.3829	0.828
10.4229	0.795
10.4628	0.813
10.5027	0.847
10.5426	0.868
10.5825	0.885
10.6224	0.897
10.6624	0.91
10.7023	0.918
10.7422	0.925
10.7821	0.931
10.822	0.935
10.862	0.938
10.9019	0.94
10.9418	0.941
10.9817	0.943
11.0216	0.948
11.0616	0.953
11.1015	0.956
11.1414	0.958
11.1813	0.958
11.2212	0.96
11.2611	0.961
11.3011	0.96
11.341	0.961
11.3809	0.961
11.4208	0.963
11.4607	0.963
11.5007	0.966
11.5406	0.968
11.5805	0.968
11.6204	0.968
11.6603	0.968
11.7003	0.968
11.7402	0.968
11.7801	0.968
11.82	0.97
11.8599	0.97
11.8998	0.971
11.9398	0.971
11.9797	0.971
12.0196	0.971
12.0595	0.973
12.0994	0.973
12.1394	0.973
12.1793	0.975
12.2192	0.973
12.2591	0.975
12.299	0.973
12.339	0.973
12.3789	0.973
12.4188	0.971
12.4587	0.971
12.4986	0.971
12.5385	0.97
12.5785	0.97
12.6184	0.97
12.6583	0.97
12.6982	0.97
12.7381	0.97
12.7781	0.97
12.818	0.97
12.8579	0.968
12.8978	0.968
12.9377	0.968
12.9777	0.963
13.0176	0.963
13.0575	0.963
13.0974	0.961
13.1373	0.958
13.1772	0.958
13.2172	0.953
13.2571	0.951
13.297	0.95
13.3369	0.943
13.3768	0.94
13.4168	0.935
13.4567	0.926
13.4966	0.915
13.5365	0.895
13.5764	0.85
13.6164	0.827
13.6563	0.838
13.6962	0.875
13.7361	0.901
13.776	0.913
13.8159	0.921
13.8559	0.928
13.8958	0.931
13.9357	0.935
13.9756	0.936
14.0155	0.94
14.0555	0.94
14.0954	0.94
14.1353	0.94
14.1752	0.94
14.2151	0.94
14.2551	0.936
14.295	0.936
14.3349	0.936
14.3748	0.936
14.4147	0.933
14.4546	0.93
14.4946	0.926
14.5345	0.921
14.5744	0.918
14.6143	0.911
14.6542	0.906
14.6942	0.901
14.7341	0.897
14.774	0.893
14.8139	0.89
14.8538	0.887
14.8938	0.883
14.9337	0.88
14.9736	0.873
15.0135	0.865
15.0534	0.86
15.0933	0.86
15.1333	0.855
15.1732	0.853
15.2131	0.848
15.253	0.84
15.2929	0.832
15.3329	0.83
15.3728	0.823
15.4127	0.813
15.4526	0.805
15.4925	0.802
15.5325	0.799
15.5724	0.797
15.6123	0.792
15.6522	0.787
15.6921	0.78
15.732	0.775
15.772	0.769
15.8119	0.764
15.8518	0.759
15.8917	0.752
15.9316	0.744
