Infrared Spectrum: METHANE, DICHLORO-
Formula: C H2 Cl2
CAS: 75-09-2
State: LIQUID (NEAT)
Class: COBLENTZ
Instrument: PERKIN-ELMER 521 (GRATING)
Sampling: TRANSMISSION
Path length: 0.003 CM
Resolution: 4
Origin: STANDARD OIL OF OHIO
1/CM	TRANSMITTANCE
601.351	0.511
610.811	0.549
620.27	0.584
629.73	0.616
639.189	0.645
648.649	0.654
658.108	0.647
667.568	0.6131
677.027	0.5691
686.487	0.4271
695.946	0.208
705.406	0.116
714.865	0.118
724.325	0.088
733.784	0.081
743.244	0.086
752.703	0.103
762.163	0.1828
771.622	0.4227
781.082	0.5719
790.541	0.701
800.001	0.8009
809.46	0.842
818.92	0.881
828.379	0.894
837.839	0.903
847.298	0.903
856.758	0.903
866.217	0.898
875.677	0.883
885.136	0.838
894.596	0.6553
904.055	0.7229
913.515	0.857
922.974	0.891
932.434	0.9
941.893	0.908
951.353	0.91
960.812	0.911
970.272	0.91
979.731	0.91
989.191	0.91
998.65	0.915
1008.11	0.913
1017.57	0.911
1027.03	0.911
1036.49	0.911
1045.95	0.91
1055.41	0.906
1064.87	0.905
1074.33	0.903
1083.79	0.903
1093.25	0.9
1102.7	0.9
1112.16	0.891
1121.62	0.888
1131.08	0.881
1140.54	0.881
1150	0.867
1159.46	0.861
1168.92	0.867
1178.38	0.867
1187.84	0.869
1197.3	0.859
1206.76	0.852
1216.22	0.833
1225.68	0.801
1235.14	0.7591
1244.6	0.661
1254.06	0.342
1263.52	0.076
1272.98	0.1519
1282.44	0.557
1291.9	0.728
1301.35	0.796
1310.81	0.837
1320.27	0.857
1329.73	0.871
1339.19	0.877
1348.65	0.877
1358.11	0.876
1367.57	0.871
1377.03	0.866
1386.49	0.85
1395.95	0.833
1405.41	0.794
1414.87	0.723
1424.33	0.588
1433.79	0.705
1443.25	0.728
1452.71	0.786
1462.17	0.837
1471.63	0.857
1481.09	0.879
1490.54	0.888
1500	0.894
1509.46	0.898
1518.92	0.896
1528.38	0.893
1537.84	0.888
1547.3	0.881
1556.76	0.891
1566.22	0.901
1575.68	0.901
1585.14	0.9
1594.6	0.9
1604.06	0.903
1613.52	0.91
1622.98	0.913
1632.44	0.913
1641.9	0.916
1651.36	0.916
1660.82	0.916
1670.28	0.918
1679.73	0.915
1689.19	0.915
1698.65	0.915
1708.11	0.911
1717.57	0.913
1727.03	0.913
1736.49	0.913
1745.95	0.913
1755.41	0.913
1764.87	0.915
1774.33	0.915
1783.79	0.918
1793.25	0.92
1802.71	0.92
1812.17	0.92
1821.63	0.92
1831.09	0.922
1840.55	0.922
1850.01	0.922
1859.47	0.92
1868.93	0.92
1878.38	0.918
1887.84	0.918
1897.3	0.918
1906.76	0.92
1916.22	0.92
1925.68	0.918
1935.14	0.92
1944.6	0.92
1954.06	0.922
1963.52	0.922
1972.98	0.922
1982.44	0.923
1991.9	0.925
2001.36	0.926
2010.82	0.925
2020.28	0.925
2029.74	0.923
2039.2	0.921
2048.66	0.92
2058.12	0.9209
2067.57	0.9249
2077.03	0.922
2086.49	0.92
2095.95	0.92
2105.41	0.918
2114.87	0.918
2124.33	0.918
2133.79	0.918
2143.25	0.9219
2152.71	0.922
2162.17	0.925
2171.63	0.927
2181.09	0.927
2190.55	0.927
2200.01	0.927
2209.47	0.927
2218.93	0.925
2228.39	0.9226
2237.85	0.92
2247.31	0.918
2256.77	0.918
2266.22	0.9062
2275.68	0.8884
2285.14	0.8665
2294.6	0.8408
2304.06	0.8213
2313.52	0.8924
2322.98	0.922
2332.44	0.923
2341.9	0.923
2351.36	0.923
2360.82	0.922
2370.28	0.922
2379.74	0.9194
2389.2	0.9102
2398.66	0.9057
2408.12	0.901
2417.58	0.9109
2427.04	0.9196
2436.5	0.923
2445.96	0.925
2455.41	0.925
2464.87	0.9245
2474.33	0.927
2483.79	0.927
2493.25	0.927
2502.71	0.928
2512.17	0.928
2521.63	0.928
2531.09	0.928
2540.55	0.928
2550.01	0.928
2559.47	0.9273
2568.93	0.927
2578.39	0.927
2587.85	0.927
2597.31	0.9277
2606.77	0.927
2616.23	0.927
2625.69	0.927
2635.15	0.927
2644.6	0.927
2654.06	0.925
2663.52	0.9228
2672.98	0.9034
2682.44	0.8901
2691.9	0.9142
2701.36	0.923
2710.82	0.9224
2720.28	0.9203
2729.74	0.922
2739.2	0.922
2748.66	0.92
2758.12	0.9159
2767.58	0.913
2777.04	0.913
2786.5	0.911
2795.96	0.9128
2805.42	0.903
2814.88	0.9
2824.34	0.898
2833.8	0.9
2843.25	0.901
2852.71	0.901
2862.17	0.898
2871.63	0.896
2881.09	0.8919
2890.55	0.888
2900.01	0.8835
2909.47	0.877
2918.93	0.8679
2928.39	0.864
2937.85	0.8604
2947.31	0.8438
2956.77	0.8213
2966.23	0.7909
2975.69	0.7371
2985.15	0.65
2994.61	0.6989
3004.07	0.81
3013.53	0.818
3022.99	0.8151
3032.44	0.7911
3041.9	0.7066
3051.36	0.4911
3060.82	0.5653
3070.28	0.7111
3079.74	0.7973
3089.2	0.8214
3098.66	0.8367
3108.12	0.8494
3117.58	0.854
3127.04	0.8579
3136.5	0.861
3145.96	0.865
3155.42	0.8769
3164.88	0.8834
3174.34	0.888
3183.8	0.8918
3193.26	0.8957
3202.72	0.898
3212.18	0.9
3221.63	0.9
3231.09	0.9
3240.55	0.901
3250.01	0.901
3259.47	0.901
3268.93	0.901
3278.39	0.901
3287.85	0.901
3297.31	0.901
3306.77	0.901
3316.23	0.901
3325.69	0.901
3335.15	0.901
3344.61	0.901
3354.07	0.901
3363.53	0.901
3372.99	0.9007
3382.45	0.901
3391.91	0.901
3401.37	0.903
3410.83	0.903
3420.28	0.903
3429.74	0.901
3439.2	0.901
3448.66	0.9015
3458.12	0.903
3467.58	0.9025
3477.04	0.901
3486.5	0.9007
3495.96	0.898
3505.42	0.898
3514.88	0.8995
3524.34	0.898
3533.8	0.898
3543.26	0.901
3552.72	0.901
3562.18	0.9026
3571.64	0.9
3581.1	0.9
3590.56	0.901
3600.02	0.903
3609.47	0.903
3618.93	0.901
3628.39	0.8986
3637.85	0.896
3647.31	0.896
3656.77	0.8927
3666.23	0.8897
3675.69	0.8768
3685.15	0.8697
3694.61	0.8744
3704.07	0.8866
3713.53	0.889
3722.99	0.8897
3732.45	0.8893
3741.91	0.891
3751.37	0.891
3760.83	0.8922
3770.29	0.8931
3779.75	0.8934
3789.21	0.894
3798.66	0.894
3808.12	0.894
3817.58	0.894
3827.04	0.894
3836.5	0.896
3845.96	0.898
3855.42	0.9
3864.88	0.9
3874.34	0.8989
3883.8	0.896
3893.26	0.8934
