Infrared Spectrum: Methane, dichloro-
Formula: C H2 Cl2
CAS: 75-09-2
State: GAS (100 mmHg, N2 ADDED, TOTAL PRESSURE 600 mmHg)
Class: COBLENTZ
Instrument: DOW KBr FOREPRISM-GRATING
Instrument parameters: GRATING CHANGED AT 5.0, 7.5, 15.0 MICRON
Sampling: TRANSMISSION
Path length: 5 CM
Resolution: 2
Origin: DOW CHEMICAL COMPANY
1/CM	TRANSMITTANCE
458	0.868
467	0.8595
476	0.8536
485	0.8506
494	0.8749
503	0.882
512	0.8833
521	0.8837
530	0.8868
539	0.8891
548	0.8909
557	0.8926
566	0.8944
575	0.8969
584	0.8994
593	0.9023
602	0.9035
611	0.8996
620	0.9004
629	0.9053
638	0.9024
647	0.8933
656	0.8796
665	0.858
674	0.8108
683	0.7416
692	0.6452
701	0.5526
710	0.5328
719	0.3636
728	0.2986
737	0.0152
746	0.0024
755	0.0032
764	0.0035
773	0.1874
782	0.7596
791	0.8893
800	0.8937
809	0.8999
818	0.9022
827	0.9003
836	0.9017
845	0.9083
854	0.9086
863	0.9031
872	0.8949
881	0.8855
890	0.871
899	0.8575
908	0.8373
917	0.8201
926	0.8569
935	0.8974
944	0.9068
953	0.9098
962	0.9119
971	0.9121
980	0.9141
989	0.9132
998	0.9122
1007	0.9114
1016	0.9114
1025	0.9118
1034	0.9087
1043	0.9055
1052	0.9068
1061	0.9019
1070	0.8959
1079	0.8962
1088	0.9006
1097	0.904
1106	0.9071
1115	0.9068
1124	0.9074
1133	0.9089
1142	0.9035
1151	0.905
1160	0.9077
1169	0.9098
1178	0.9034
1187	0.9154
1196	0.9164
1205	0.9166
1214	0.9157
1223	0.9134
1232	0.9165
1241	0.8463
1250	0.5404
1259	0.0424
1268	0.0796
1277	0.0335
1286	0.5318
1295	0.8928
1304	0.8947
1313	0.8973
1322	0.8971
1331	0.8965
1340	0.8965
1349	0.8949
1358	0.9049
1367	0.8941
1376	0.8834
1385	0.8781
1394	0.8755
1403	0.8748
1412	0.8753
1421	0.8746
1430	0.8694
1439	0.866
1448	0.8363
1457	0.8029
1466	0.7868
1475	0.7832
1484	0.8769
1493	0.8846
1502	0.8822
1511	0.8899
1520	0.8887
1529	0.8846
1538	0.8871
1547	0.8835
1556	0.8782
1565	0.884
1574	0.8889
1583	0.8833
1592	0.8817
1601	0.8853
1610	0.8812
1619	0.8864
1628	0.8765
1637	0.8803
1646	0.8725
1655	0.8797
1664	0.8787
1673	0.8847
1682	0.8849
1691	0.8839
1700	0.8897
1709	0.8832
1718	0.8947
1727	0.8834
1736	0.8877
1745	0.884
1754	0.8822
1763	0.8805
1772	0.8798
1781	0.8794
1790	0.8798
1799	0.8802
1808	0.8805
1817	0.8805
1826	0.8806
1835	0.8807
1844	0.8809
1853	0.8809
1862	0.8801
1871	0.8798
1880	0.8789
1889	0.8794
1898	0.8795
1907	0.8788
1916	0.8773
1925	0.8804
1934	0.8803
1943	0.8796
1952	0.8788
1961	0.8782
1970	0.8771
1979	0.8768
1988	0.8748
1997	0.8787
2006	0.8772
2015	0.8764
2024	0.8794
2033	0.8785
2042	0.8774
2051	0.8716
2060	0.8714
2069	0.8736
2078	0.873
2087	0.8778
2096	0.8805
2105	0.8813
2114	0.8813
2123	0.8805
2132	0.8794
2141	0.8784
2150	0.8774
2159	0.8764
2168	0.8755
2177	0.8746
2186	0.8744
2195	0.8784
2204	0.8798
2213	0.8803
2222	0.8807
2231	0.8805
2240	0.8801
2249	0.8807
2258	0.8812
2267	0.8802
2276	0.8785
2285	0.8761
2294	0.8702
2303	0.8638
2312	0.8655
2321	0.8463
2330	0.8718
2339	0.8766
2348	0.8809
2357	0.8864
2366	0.8904
2375	0.889
2384	0.8872
2393	0.8851
2402	0.883
2411	0.8802
2420	0.879
2429	0.8787
2438	0.8803
2447	0.8813
2456	0.882
2465	0.8833
2474	0.8837
2483	0.8851
2492	0.8849
2501	0.8853
2510	0.8846
2519	0.8839
2528	0.8834
2537	0.8829
2546	0.8834
2555	0.8838
2564	0.8844
2573	0.8854
2582	0.8857
2591	0.8858
2600	0.8859
2609	0.8857
2618	0.8855
2627	0.8853
2636	0.8849
2645	0.8841
2654	0.8833
2663	0.8818
2672	0.8781
2681	0.872
2690	0.8564
2699	0.8571
2708	0.8435
2717	0.872
2726	0.8827
2735	0.8823
2744	0.8809
2753	0.8804
2762	0.8806
2771	0.8811
2780	0.8813
2789	0.8805
2798	0.8788
2807	0.8767
2816	0.8746
2825	0.873
2834	0.8716
2843	0.8731
2852	0.8765
2861	0.8713
2870	0.8716
2879	0.873
2888	0.875
2897	0.8794
2906	0.8853
2915	0.8897
2924	0.886
2933	0.8777
2942	0.8668
2951	0.8461
2960	0.8085
2969	0.7618
2978	0.6614
2987	0.6107
2996	0.6078
3005	0.6635
3014	0.6225
3023	0.699
3032	0.7428
3041	0.8048
3050	0.8299
3059	0.8488
3068	0.8578
3077	0.8615
3086	0.8627
3095	0.8633
3104	0.8638
3113	0.8641
3122	0.8631
3131	0.8601
3140	0.8636
3149	0.8659
3158	0.8666
3167	0.8673
3176	0.8676
3185	0.8675
3194	0.8674
3203	0.8672
3212	0.8672
3221	0.8673
3230	0.8675
3239	0.867
3248	0.8663
3257	0.8655
3266	0.8648
3275	0.8646
3284	0.8645
3293	0.8642
3302	0.8638
3311	0.8637
3320	0.8659
3329	0.8644
3338	0.862
3347	0.8618
3356	0.8616
3365	0.8616
3374	0.8616
3383	0.8617
3392	0.8622
3401	0.8629
3410	0.8638
3419	0.8656
3428	0.869
3437	0.8719
3446	0.8646
3455	0.8658
3464	0.8675
3473	0.8688
3482	0.8702
3491	0.8715
3500	0.8731
3509	0.8747
3518	0.8753
3527	0.8749
3536	0.8741
3545	0.875
3554	0.8765
3563	0.8769
3572	0.8722
3581	0.8784
3590	0.8797
3599	0.8802
3608	0.8791
3617	0.8788
3626	0.8796
3635	0.8829
3644	0.8799
3653	0.876
3662	0.883
3671	0.877
3680	0.8725
3689	0.8714
3698	0.8746
3707	0.8726
3716	0.8746
3725	0.878
3734	0.8794
3743	0.875
3752	0.8718
3761	0.8728
3770	0.874
