Infrared Spectrum: Methylene Chloride
Formula: C H 2 Cl 2
CAS: 75-09-2
State: gas
Origin: Sadtler Research Labs Under US-EPA Contract
1/CM	ABSORBANCE
450	0.00276396
462	0.00329892
474	0.00285312
486	0.00249648
498	0.00374472
510	0.0017832
522	0.0026748
534	0.00294228
546	0.0035664
558	0.00080244
570	0.0008916
582	0.00276396
594	0.00276396
606	0.00320976
618	0.00320976
630	0.00383388
642	0.0053496
654	0.0098076
666	0.0169404
678	0.0243407
690	0.0345049
702	0.0459174
714	0.0747161
726	0.204622
738	0.577133
750	0.786213
762	0.499742
774	0.159507
786	0.0004458
798	0.00454716
810	0.00552792
822	0.004458
834	0.00392304
846	0.0040122
858	0.00472548
870	0.00543876
882	0.00641952
894	0.00855936
906	0.00633036
918	0.00731112
930	0.00641952
942	0.00481464
954	0.004458
966	0.00338808
978	0.00303144
990	0.00392304
1002	0.00392304
1014	0.0035664
1026	0.00329892
1038	0.00392304
1050	0.00329892
1062	0.00383388
1074	0.00436884
1086	0.006687
1098	0.00526044
1110	0.00285312
1122	0.00276396
1134	0.00285312
1146	0.00276396
1158	0.00240732
1170	0.00285312
1182	0.00276396
1194	0.0026748
1206	0.00276396
1218	0.00276396
1230	0.0035664
1242	0.0252323
1254	0.150056
1266	0.160131
1278	0.212379
1290	0.0290662
1302	0.00231816
1314	0.00240732
1326	0.00285312
1338	0.00285312
1350	0.002229
1362	0.0026748
1374	0.0026748
1386	0.00347724
1398	0.00347724
1410	0.00365556
1422	0.0040122
1434	0.00633036
1446	0.00900516
1458	0.00909432
1470	0.00855936
1482	0.00419052
1494	0.0026748
1506	0.00213984
1518	0.00249648
1530	0.00258564
1542	0.00205068
1554	0.00285312
1566	0.00249648
1578	0.00187236
1590	0.00285312
1602	0.00213984
1614	0.00231816
1626	0.0026748
1638	0.00169404
1650	0.00249648
1662	0.00205068
1674	0.00213984
1686	0.00098076
1698	0.0017832
1710	0.00187236
1722	0.00258564
1734	0.0017832
1746	0.0026748
1758	0.00187236
1770	0.00196152
1782	0.00213984
1794	0.002229
1806	0.00187236
1818	0.0017832
1830	0.0017832
1842	0.00205068
1854	0.00151572
1866	0.0017832
1878	0.00151572
1890	0.00169404
1902	0.00142656
1914	0.00151572
1926	0.0013374
1938	0.00124824
1950	0.0013374
1962	0.00124824
1974	0.00115908
1986	0.00124824
1998	0.00106992
2010	0.00098076
2022	0.00106992
2034	0.00098076
2046	0.00098076
2058	0.00080244
2070	0.0008916
2082	0.00080244
2094	0.00080244
2106	0.00098076
2118	0.00071328
2130	0.00062412
2142	0.00062412
2154	0.00080244
2166	0.00080244
2178	0.00062412
2190	0.00053496
2202	0.00053496
2214	0.00071328
2226	0.00098076
2238	0.0004458
2250	0.00098076
2262	0.00053496
2274	0.00115908
2286	0.00142656
2298	0.00213984
2310	0.00249648
2322	0.00249648
2334	0.00169404
2346	0.00115908
2358	0.00062412
2370	0.00115908
2382	0.00098076
2394	0.0004458
2406	0
2418	0.00035664
2430	0.0004458
2442	0.00062412
2454	8.916e-05
2466	0
2478	0
2490	0
2502	0.00053496
2514	8.916e-05
2526	0.00062412
2538	0.00115908
2550	0.00098076
2562	0.00071328
2574	0.00017832
2586	8.916e-05
2598	0.0004458
2610	0.00062412
2622	0.00062412
2634	0.00062412
2646	0.00062412
2658	0.00071328
2670	0.00071328
2682	0.0017832
2694	0.00258564
2706	0.00249648
2718	0.0008916
2730	0.00026748
2742	0.00035664
2754	0.0008916
2766	0.0008916
2778	0.00080244
2790	0.0008916
2802	0.00098076
2814	0.0008916
2826	0.0013374
2838	0.00187236
2850	0.00151572
2862	0.00142656
2874	0.00151572
2886	0.00098076
2898	0.00106992
2910	0.00160488
2922	0.00160488
2934	0.00205068
2946	0.0040122
2958	0.0071328
2970	0.0113233
2982	0.0187236
2994	0.0185453
3006	0.022825
3018	0.018367
3030	0.0124824
3042	0.00731112
3054	0.00374472
3066	0.00124824
3078	0.0013374
3090	0.00098076
3102	0.0008916
3114	0.00080244
3126	0.00080244
3138	0.00080244
3150	0.00098076
3162	0.00098076
3174	0.0008916
3186	0.0008916
3198	0.00106992
3210	0.00106992
3222	0.00106992
3234	0.00106992
3246	0.00106992
3258	0.00106992
3270	0.00053496
3282	0.00106992
3294	0.0017832
3306	0.00098076
3318	0.00115908
3330	0.00071328
3342	0.00053496
3354	0.00062412
3366	0.00124824
3378	0.00124824
3390	0.00071328
3402	0.00106992
3414	0.00062412
3426	0.0008916
3438	0
3450	0.00062412
3462	0.0004458
3474	0.0008916
3486	0.00151572
3498	0.00115908
3510	0.00169404
3522	0.00098076
3534	0.00160488
3546	0.00205068
3558	0.00035664
3570	0.00062412
3582	0.0013374
3594	0.0008916
3606	0.00196152
3618	0.0017832
3630	0
3642	0.0013374
3654	0.00142656
3666	0.00080244
3678	0.0004458
3690	0.00213984
3702	0.00169404
3714	0.0017832
3726	0.00169404
3738	0.00142656
3750	0.00187236
3762	0.00231816
3774	0.00205068
3786	0.00142656
3798	0.00142656
3810	0.0017832
3822	0.00106992
3834	0.0004458
3846	0.0008916
3858	0.00062412
3870	0.00142656
3882	0.00106992
3894	0.00062412
3906	0.00106992
3918	0.00213984
3930	0.00258564
3942	0.00160488
3954	0.0004458
3966	0.00017832
