Infrared Spectrum: Thiazole, 4,5-dihydro-2-methyl-
Formula: C 4 H 7 N S
CAS: 2346-00-1
State: gas
Origin: Sadtler Research Labs Under US-EPA Contract
1/CM	ABSORBANCE
450	0
462	0.0260479
474	0.0293749
486	0.0270216
498	0.0353391
510	0.0398833
522	0.0342842
534	0.0245061
546	0.0303892
558	0.0290097
570	0.0282794
582	0.0398021
594	0.0930339
606	0.132065
618	0.147361
630	0.058628
642	0.0520552
654	0.0528666
666	0.040289
678	0.0278737
690	0.0285634
702	0.0348928
714	0.0337567
726	0.0315252
738	0.0305109
750	0.0331887
762	0.0302675
774	0.0279142
786	0.0284822
798	0.0274679
810	0.0289691
822	0.0316875
834	0.0390312
846	0.0481196
858	0.0482819
870	0.0421553
882	0.068893
894	0.13665
906	0.148903
918	0.11044
930	0.0792796
942	0.13312
954	0.15223
966	0.128941
978	0.0681221
990	0.062239
1002	0.0710433
1014	0.0675946
1026	0.061671
1038	0.0637402
1050	0.0715302
1062	0.0677975
1074	0.0545301
1086	0.0464155
1098	0.0492962
1110	0.0674729
1122	0.112671
1134	0.225261
1146	0.388324
1158	0.38873
1170	0.25914
1182	0.129103
1194	0.120015
1206	0.130158
1218	0.115349
1230	0.0910052
1242	0.0635779
1254	0.0622796
1266	0.0546113
1278	0.0416685
1290	0.0395587
1302	0.0507568
1314	0.0511626
1326	0.0467401
1338	0.0387066
1350	0.0489716
1362	0.0641865
1374	0.0914921
1386	0.0995661
1398	0.0494585
1410	0.041425
1422	0.0569239
1434	0.0852844
1446	0.103299
1458	0.0850004
1470	0.0598452
1482	0.0488499
1494	0.0520146
1506	0.0471458
1518	0.0369214
1530	0.0400861
1542	0.0432508
1554	0.0418713
1566	0.0397615
1578	0.0391124
1590	0.0443869
1602	0.0575325
1614	0.0845136
1626	0.214915
1638	0.37672
1650	0.375219
1662	0.162982
1674	0.0420336
1686	0.0320932
1698	0.0440217
1710	0.0613058
1722	0.0645516
1734	0.0475516
1746	0.0409382
1758	0.0387066
1770	0.0363128
1782	0.032215
1794	0.0299023
1806	0.0276302
1818	0.0251958
1830	0.0234918
1842	0.023086
1854	0.0238164
1866	0.0234918
1878	0.0239786
1890	0.0234106
1902	0.0234918
1914	0.0238569
1926	0.0232889
1938	0.0243438
1950	0.0244655
1962	0.0245467
1974	0.0238164
1986	0.0235323
1998	0.0232078
2010	0.0231266
2022	0.0232483
2034	0.0230049
2046	0.0221934
2058	0.0218688
2070	0.0226803
2082	0.0222746
2094	0.0231672
2106	0.0238975
2118	0.0239786
2130	0.0238569
2142	0.0242221
2154	0.0237352
2166	0.0240598
2178	0.0236946
2190	0.0236946
2202	0.0234918
2214	0.0238975
2226	0.0238164
2238	0.0234918
2250	0.0236946
2262	0.0241409
2274	0.0244655
2286	0.0242221
2298	0.0234512
2310	0.0227209
2322	0.0232889
2334	0.0244249
2346	0.0241409
2358	0.0231672
2370	0.0256827
2382	0.0248307
2394	0.0250335
2406	0.024993
2418	0.0249524
2430	0.0248712
2442	0.0246684
2454	0.0248307
2466	0.0249524
2478	0.0245872
2490	0.0246684
2502	0.0251147
2514	0.0254798
2526	0.0271028
2538	0.0274679
2550	0.0259667
2562	0.0253581
2574	0.0249118
2586	0.0257639
2598	0.0268188
2610	0.0277519
2622	0.0269405
2634	0.0260073
2646	0.0267782
2658	0.0256827
2670	0.0249524
2682	0.0251147
2694	0.0249118
2706	0.024993
2718	0.0253987
2730	0.0259667
2742	0.0262102
2754	0.026981
2766	0.0275085
2778	0.0289285
2790	0.0287257
2802	0.0309166
2814	0.0320121
2826	0.0335539
2838	0.0415468
2850	0.0792796
2862	0.141559
2874	0.149755
2886	0.118757
2898	0.0987953
2910	0.111008
2922	0.155963
2934	0.213252
2946	0.271352
2958	0.265794
2970	0.223111
2982	0.173977
2994	0.125695
3006	0.0885303
3018	0.0650385
3030	0.0479167
3042	0.0405324
3054	0.0390312
3066	0.0395992
3078	0.0398427
3090	0.0360288
3102	0.0339596
3114	0.0311601
3126	0.0296994
3138	0.0292937
3150	0.0286851
3162	0.0282794
3174	0.0283605
3186	0.028604
3198	0.0288474
3210	0.0294154
3222	0.0311601
3234	0.0306732
3246	0.0322555
3258	0.0350956
3270	0.0357042
3282	0.0325395
3294	0.0262507
3306	0.0263319
3318	0.0251553
3330	0.0238569
3342	0.0231672
3354	0.0234918
3366	0.0241004
3378	0.0235729
3390	0.0235323
3402	0.0245061
3414	0.0236135
3426	0.0243032
3438	0.0253176
3450	0.0247901
3462	0.0275896
3474	0.0277925
3486	0.0266565
3498	0.0280765
3510	0.0258856
3522	0.0268593
3534	0.0278331
3546	0.0264536
3558	0.0268999
3570	0.02832
3582	0.0344059
3594	0.0309978
3606	0.028604
3618	0.0289691
3630	0.0302675
3642	0.030024
3654	0.0278331
3666	0.0301863
3678	0.0300646
3690	0.0288474
3702	0.0329047
3714	0.0301457
3726	0.0292126
3738	0.0321338
3750	0.0323367
3762	0.0284011
3774	0.0309166
3786	0.0319715
3798	0.0309572
3810	0.0305109
3822	0.0313629
3834	0.0297806
3846	0.029456
3858	0.0303892
3870	0.0312818
3882	0.0281577
3894	0.0324584
3906	0.0304297
3918	0.033635
3930	0.0313224
3942	0.0316064
3954	0.0309572
3966	0.0306732
