Infrared Spectrum: 1,4-DIOXANE
Formula: C4 H8 O2
CAS: 123-91-1
State: GAS (8 mmHg, N2 ADDED, TOTAL PRESSURE 600 mmHg)
Class: COBLENTZ
Instrument: BECKMAN IR-9 (GRATING)
Instrument parameters: ORDER CHANGES: 670, 1200, 2000 CM^-^1
Sampling: TRANSMISSION
Path length: 10 CM
Resolution: 2
Origin: DOW CHEMICAL COMPANY
1/CM	TRANSMITTANCE
211.683	0
221.448	0.001
231.212	0.001
240.977	0
250.741	0.001
260.506	0.001
270.271	0.014
280.035	0.001
289.8	0.001
299.565	0.001
309.329	0.011
319.094	0.016
328.858	0.022
338.623	0.037
348.388	0.067
358.152	0.116
367.917	0.181
377.681	0.2489
387.446	0.318
397.211	0.385
406.975	0.464
416.74	0.5439
426.505	0.614
436.269	0.67
446.034	0.719
455.798	0.754
465.563	0.788
475.328	0.814
485.092	0.838
494.857	0.852
504.622	0.852
514.386	0.874
524.151	0.887
533.915	0.878
543.68	0.882
553.445	0.9
563.209	0.895
572.974	0.885
582.738	0.882
592.503	0.853
602.268	0.764
612.032	0.713
621.797	0.722
631.562	0.801
641.326	0.8779
651.091	0.9
660.855	0.915
670.62	0.919
680.385	0.928
690.149	0.932
699.914	0.932
709.678	0.936
719.443	0.94
729.208	0.943
738.972	0.94
748.737	0.94
758.502	0.941
768.266	0.941
778.031	0.943
787.795	0.945
797.56	0.941
807.325	0.943
817.089	0.943
826.854	0.943
836.619	0.941
846.383	0.934
856.148	0.904
865.912	0.7752
875.677	0.5161
885.442	0.127
895.206	0.1721
904.971	0.7645
914.735	0.908
924.5	0.934
934.265	0.94
944.029	0.94
953.794	0.936
963.559	0.938
973.323	0.938
983.088	0.934
992.852	0.932
1002.62	0.93
1012.38	0.926
1022.15	0.915
1031.91	0.887
1041.68	0.848
1051.44	0.6791
1061.2	0.8141
1070.97	0.829
1080.73	0.801
1090.5	0.775
1100.26	0.758
1110.03	0.6041
1119.79	0.222
1129.56	0.101
1139.32	0.1189
1149.09	0.3009
1158.85	0.7706
1168.62	0.913
1178.38	0.917
1188.14	0.925
1197.91	0.93
1207.67	0.93
1217.44	0.928
1227.2	0.913
1236.97	0.8051
1246.73	0.58
1256.5	0.5432
1266.26	0.5459
1276.03	0.771
1285.79	0.7989
1295.56	0.767
1305.32	0.844
1315.08	0.872
1324.85	0.897
1334.61	0.906
1344.38	0.9
1354.14	0.8071
1363.91	0.756
1373.67	0.73
1383.44	0.808
1393.2	0.88
1402.97	0.908
1412.73	0.917
1422.5	0.911
1432.26	0.891
1442.02	0.835
1451.79	0.739
1461.55	0.7199
1471.32	0.801
1481.08	0.865
1490.85	0.9
1500.61	0.917
1510.38	0.91
1520.14	0.913
1529.91	0.919
1539.67	0.915
1549.44	0.919
1559.2	0.911
1568.96	0.921
1578.73	0.915
1588.49	0.923
1598.26	0.923
1608.02	0.923
1617.79	0.919
1627.55	0.919
1637.32	0.913
1647.08	0.919
1656.85	0.915
1666.61	0.921
1676.38	0.917
1686.14	0.913
1695.9	0.919
1705.67	0.913
1715.43	0.91
1725.2	0.908
1734.96	0.902
1744.73	0.908
1754.49	0.915
1764.26	0.925
1774.02	0.917
1783.79	0.925
1793.55	0.921
1803.32	0.923
1813.08	0.926
1822.84	0.925
1832.61	0.928
1842.37	0.923
1852.14	0.926
1861.9	0.925
1871.67	0.925
1881.43	0.925
1891.2	0.913
1900.96	0.908
1910.73	0.913
1920.49	0.921
1930.26	0.923
1940.02	0.923
1949.78	0.915
1959.55	0.902
1969.31	0.889
1979.08	0.882
1988.84	0.874
1998.61	0.87
2008.37	0.9018
2018.14	0.9128
2027.9	0.9229
2037.67	0.926
2047.43	0.928
2057.2	0.9242
2066.96	0.921
2076.72	0.919
2086.49	0.9207
2096.25	0.923
2106.02	0.925
2115.78	0.925
2125.55	0.9215
2135.31	0.9185
2145.08	0.917
2154.84	0.9194
2164.61	0.9237
2174.37	0.917
2184.14	0.9183
2193.9	0.921
2203.66	0.921
2213.43	0.921
2223.19	0.919
2232.96	0.919
2242.72	0.917
2252.49	0.913
2262.25	0.909
2272.02	0.9041
2281.78	0.9089
2291.55	0.9209
2301.31	0.9313
2311.08	0.9427
2320.84	0.9537
2330.6	0.955
2340.37	0.955
2350.13	0.9534
2359.9	0.9504
2369.66	0.9391
2379.43	0.9257
2389.19	0.917
2398.96	0.919
2408.72	0.919
2418.49	0.921
2428.25	0.925
2438.02	0.926
2447.78	0.926
2457.54	0.9228
2467.31	0.921
2477.07	0.921
2486.84	0.921
2496.6	0.923
2506.37	0.9255
2516.13	0.928
2525.9	0.928
2535.66	0.9281
2545.43	0.928
2555.19	0.9251
2564.96	0.9194
2574.72	0.911
2584.49	0.9157
2594.25	0.919
2604.01	0.9253
2613.78	0.928
2623.54	0.928
2633.31	0.928
2643.07	0.9225
2652.84	0.9141
2662.6	0.9016
2672.37	0.8821
2682.13	0.8512
2691.9	0.8316
2701.66	0.8507
2711.43	0.878
2721.19	0.8944
2730.95	0.8753
2740.72	0.8505
2750.48	0.8066
2760.25	0.8371
2770.01	0.8665
2779.78	0.8998
2789.54	0.906
2799.31	0.9042
2809.07	0.8786
2818.84	0.8331
2828.6	0.8002
2838.37	0.5913
2848.13	0.3126
2857.89	0.292
2867.66	0.306
2877.42	0.3909
2887.19	0.625
2896.95	0.5372
2906.72	0.5195
2916.48	0.4703
2926.25	0.6095
2936.01	0.6954
2945.78	0.6301
2955.54	0.2848
2965.31	0.14
2975.07	0.1802
2984.83	0.5094
2994.6	0.8338
3004.36	0.9063
3014.13	0.915
3023.89	0.919
3033.66	0.921
3043.42	0.923
3053.19	0.923
3062.95	0.9259
3072.72	0.9256
3082.48	0.925
3092.25	0.923
3102.01	0.919
3111.77	0.9143
3121.54	0.913
3131.3	0.9176
3141.07	0.919
3150.83	0.9185
3160.6	0.917
3170.36	0.919
3180.13	0.921
3189.89	0.923
3199.66	0.9197
3209.42	0.9147
3219.19	0.9143
3228.95	0.917
3238.71	0.9202
3248.48	0.921
3258.24	0.921
3268.01	0.921
3277.77	0.921
3287.54	0.921
3297.3	0.92
3307.07	0.919
3316.83	0.917
3326.6	0.917
3336.36	0.919
3346.13	0.919
3355.89	0.919
3365.65	0.9153
3375.42	0.913
3385.18	0.913
3394.95	0.9122
3404.71	0.917
3414.48	0.917
3424.24	0.917
3434.01	0.9146
3443.77	0.913
3453.54	0.913
3463.3	0.913
3473.07	0.915
3482.83	0.915
3492.59	0.915
3502.36	0.915
3512.12	0.915
3521.89	0.917
3531.65	0.919
3541.42	0.919
3551.18	0.917
3560.95	0.917
3570.71	0.9131
3580.48	0.9139
3590.24	0.9188
3600.01	0.9182
3609.77	0.9188
3619.53	0.9217
3629.3	0.9213
3639.06	0.915
3648.83	0.9206
3658.59	0.9179
3668.36	0.9165
3678.12	0.921
3687.89	0.921
3697.65	0.917
3707.42	0.9164
3717.18	0.9207
3726.95	0.9157
3736.71	0.9127
3746.47	0.9122
3756.24	0.9132
3766	0.9181
3775.77	0.919
3785.53	0.9179
3795.3	0.913
3805.06	0.91
3814.83	0.91
3824.59	0.9139
3834.36	0.917
3844.12	0.915
3853.89	0.913
3863.65	0.911
3873.41	0.9127
3883.18	0.917
3892.94	0.917
3902.71	0.917
3912.47	0.9154
3922.24	0.915
3932	0.913
3941.77	0.913
3951.53	0.913
3961.3	0.91
3971.06	0.9026
3980.83	0.8997
