Infrared Spectrum: 1,4-Dioxane
Formula: C 4 H 8 O 2
CAS: 123-91-1
State: gas
Origin: Sadtler Research Labs Under US-EPA Contract
1/CM	ABSORBANCE
450	0.0107164
462	0.00564021
474	0.00376014
486	0.0026321
498	0.0026321
510	0.00376014
522	0.00169206
534	0.00300811
546	0.00112804
558	0.00319612
570	0.00714427
582	0.0172966
594	0.0906194
606	0.16131
618	0.189323
630	0.147774
642	0.0285771
654	0.00958836
666	0.00714427
678	0.00507619
690	0.0052642
702	0.00470018
714	0.00338413
726	0.00357213
738	0.00394815
750	0.00319612
762	0.00338413
774	0.00319612
786	0.00112804
798	0.00300811
810	0.00319612
822	0.00507619
834	0.0135365
846	0.0507619
858	0.232377
870	0.701078
882	1.40516
894	0.959776
906	0.141569
918	0.026885
930	0.0107164
942	0.0080843
954	0.00695626
966	0.0054522
978	0.00394815
990	0.00338413
1002	0.00470018
1014	0.0125965
1026	0.0406095
1038	0.0755788
1050	0.193835
1062	0.137433
1074	0.153038
1086	0.186879
1098	0.31886
1110	0.844903
1122	1.71669
1134	1.87142
1146	1.45724
1158	0.458361
1170	0.0577181
1182	0.0203048
1194	0.0163566
1206	0.0118444
1218	0.0144765
1230	0.0862952
1242	0.378082
1254	0.48017
1266	0.502731
1278	0.210004
1290	0.200979
1302	0.0887393
1314	0.0697506
1326	0.0377894
1338	0.0391055
1350	0.112804
1362	0.159994
1374	0.171274
1386	0.080467
1398	0.0199287
1410	0.00883633
1422	0.0208688
1434	0.0678705
1446	0.139877
1458	0.211696
1470	0.121829
1482	0.0579062
1494	0.0171086
1506	0.0054522
1518	0.00244409
1530	0.00225608
1542	0.00206808
1554	0.0052642
1566	0.00432416
1578	0.00620423
1590	0.00244409
1602	0.00319612
1614	0.00413615
1626	0.00225608
1638	0.00169206
1650	0.00112804
1662	0.000752028
1674	0.00188007
1686	0.00394815
1698	0.00639224
1710	0.0129725
1722	0.0186127
1734	0.0195527
1746	0.0176727
1758	0.0141005
1770	0.00676825
1782	0.00564021
1794	0.0054522
1806	0.00394815
1818	0.00188007
1830	0.000752028
1842	0.00244409
1854	0.00376014
1866	0.00394815
1878	0.00658024
1890	0.0137245
1902	0.0182367
1914	0.0101524
1926	0.0080843
1938	0.0109044
1950	0.0218088
1962	0.0351573
1974	0.0445577
1986	0.0490698
1998	0.052642
2010	0.0327132
2022	0.0110924
2034	0.00413615
2046	0.00225608
2058	0.00225608
2070	0.00470018
2082	0.00488818
2094	0.0054522
2106	0.0052642
2118	0.0054522
2130	0.00752028
2142	0.00714427
2154	0.00676825
2166	0.00507619
2178	0.00752028
2190	0.00752028
2202	0.00695626
2214	0.00770829
2226	0.00902434
2238	0.0112804
2250	0.0122205
2262	0.0157926
2274	0.0188007
2286	0.0154166
2298	0.0107164
2310	0.00921234
2322	0.00921234
2334	0.00996437
2346	0.00996437
2358	0.00977636
2370	0.0131605
2382	0.0109044
2394	0.00940035
2406	0.0080843
2418	0.0052642
2430	0.00357213
2442	0.00338413
2454	0.00319612
2466	0.00432416
2478	0.00470018
2490	0.00394815
2502	0.0028201
2514	0.00112804
2526	0
2538	0.000376014
2550	0.0028201
2562	0.0054522
2574	0.0109044
2586	0.00902434
2598	0.00827231
2610	0.00488818
2622	0.00338413
2634	0.00620423
2646	0.0120324
2658	0.026321
2670	0.0458737
2682	0.0761428
2694	0.0926875
2706	0.0757668
2718	0.05283
2730	0.0567781
2742	0.081595
2754	0.110548
2766	0.0838511
2778	0.0475658
2790	0.0353453
2802	0.0436176
2814	0.0834751
2826	0.16319
2838	0.451969
2850	1.05152
2862	1.61554
2874	0.943607
2886	0.727023
2898	0.81219
2910	0.552929
2922	0.681149
2934	0.392183
2946	0.595982
2958	1.31417
2970	1.67777
2982	1.23765
2994	0.322244
3006	0.0441816
3018	0.0127845
3030	0.00958836
3042	0.0112804
3054	0.00620423
3066	0.00902434
3078	0.0052642
3090	0.00883633
3102	0.00940035
3114	0.0120324
3126	0.0159806
3138	0.0125965
3150	0.0101524
3162	0.0112804
3174	0.0105284
3186	0.0110924
3198	0.0105284
3210	0.0124085
3222	0.0142885
3234	0.0124085
3246	0.0120324
3258	0.0118444
3270	0.0125965
3282	0.0116564
3294	0.00902434
3306	0.0052642
3318	0.0180487
3330	0.00658024
3342	0.00977636
3354	0.0167326
3366	0.0112804
3378	0.0154166
3390	0.00940035
3402	0.0172966
3414	0.00658024
3426	0.00864832
3438	0.0120324
3450	0.0112804
3462	0.0141005
3474	0.0112804
3486	0.00789629
3498	0.00601622
3510	0.00958836
3522	0.0141005
3534	0.00770829
3546	0.00958836
3558	0.0114684
3570	0.0171086
3582	0.00958836
3594	0.0167326
3606	0.0139125
3618	0.0122205
3630	0.0118444
3642	0.0112804
3654	0.00883633
3666	0.0127845
3678	0.0101524
3690	0.0144765
3702	0.0131605
3714	0.0127845
3726	0.0139125
3738	0.0144765
3750	0.0152286
3762	0.0125965
3774	0.0122205
3786	0.0163566
3798	0.0167326
3810	0.0169206
3822	0.0184247
3834	0.0176727
3846	0.0157926
3858	0.0199287
3870	0.0178607
3882	0.0148526
3894	0.0156046
3906	0.0206808
3918	0.0144765
3930	0.0101524
3942	0.0188007
3954	0.0204928
3966	0.0233129
