Infrared Spectrum: Methylcyclobutane
Formula: C 5 H 10
CAS: 598-61-8
State: gas
Instrument: HP-GC/MS/IRD
Origin: NIST Mass Spectrometry Data Center
1/CM	ABSORBANCE
550	0.0003132
562	0.0001008
574	5.4e-05
586	0.0001944
598	0.0003384
610	0.0003096
622	0.0003384
634	0.000324
646	0.0001764
658	0.0004068
670	0.0002484
682	0.0004248
694	0.0003204
706	0.0002772
718	0.0003708
730	0.0002124
742	0.0003636
754	0.0003204
766	0.000432
778	0.0003096
790	0.0002772
802	0.0002916
814	0.0002448
826	0.0002952
838	0.00036
850	0.0004068
862	0.0004464
874	0.0005184
886	0.0004248
898	0.0005724
910	0.0006804
922	0.0006048
934	0.000504
946	0.0005364
958	0.000486
970	0.0003996
982	0.0004176
994	0.0004464
1006	0.0002124
1018	0.0002304
1030	0.0001836
1042	0.0002124
1054	0.0003168
1066	0.000252
1078	0.0003384
1090	0.0004896
1102	0.0003852
1114	0.0003492
1126	0.0002988
1138	0.0003096
1150	0.0001944
1162	0.0003384
1174	0.0002844
1186	0.000324
1198	0.0001908
1210	0.0003492
1222	0.000432
1234	0.0006516
1246	0.0007416
1258	0.0006624
1270	0.0005328
1282	0.0003816
1294	0.0002952
1306	0.000432
1318	0.0007272
1330	0.0011592
1342	0.0012708
1354	0.0012744
1366	0.001206
1378	0.001368
1390	0.0011772
1402	0.0009
1414	0.0008604
1426	0.0012564
1438	0.001764
1450	0.0021564
1462	0.002268
1474	0.0016092
1486	0.0011592
1498	0.0007308
1510	0.0004356
1522	0.0003528
1534	0.0003276
1546	0.0003132
1558	0.0002736
1570	0.0002628
1582	0.0002952
1594	0.000252
1606	0.0002412
1618	0.0002484
1630	0.0002556
1642	0.0002664
1654	0.0003096
1666	0.00027
1678	0.0002484
1690	0.00027
1702	0.0002664
1714	0.0002124
1726	0.0001908
1738	0.0001872
1750	0.0001656
1762	0.0001728
1774	0.0002016
1786	0.0001548
1798	0.0001908
1810	0.0002196
1822	0.0002088
1834	0.0002016
1846	0.000216
1858	0.000198
1870	0.0002016
1882	0.000162
1894	0.0001656
1906	0.0001584
1918	0.0001728
1930	0.0001728
1942	0.000162
1954	0.0001548
1966	0.000144
1978	0.0001656
1990	0.0001656
2002	0.0001476
2014	0.0001476
2026	0.0001764
2038	0.0001512
2050	0.0001908
2062	0.0001872
2074	0.0002196
2086	0.0002052
2098	0.0002196
2110	0.0002088
2122	0.0002736
2134	0.0002556
2146	0.0002448
2158	0.000216
2170	0.0002268
2182	0.0002232
2194	0.0002232
2206	0.000198
2218	0.0001764
2230	0.000126
2242	0.000144
2254	0.0001116
2266	0.0001044
2278	7.92e-05
2290	9.36e-05
2302	0.000108
2314	0.0001224
2326	0.000108
2338	0.0001656
2350	0.0001584
2362	0.0001404
2374	0.0001188
2386	8.64e-05
2398	5.04e-05
2410	0.0001044
2422	0.0001296
2434	0.0001368
2446	8.28e-05
2458	0.0001296
2470	0.0001404
2482	0.0001368
2494	0.0001764
2506	0.0001404
2518	0.0001512
2530	0.0001116
2542	0.000162
2554	0.0001728
2566	0.0001296
2578	0.0001368
2590	0.000162
2602	0.0001692
2614	0.0001872
2626	0.000198
2638	0.0003096
2650	0.0003168
2662	0.0003708
2674	0.0003744
2686	0.0003312
2698	0.0003384
2710	0.0003492
2722	0.0004536
2734	0.0005076
2746	0.0004212
2758	0.0004608
2770	0.0004068
2782	0.0005904
2794	0.0006732
2806	0.0008712
2818	0.0012276
2830	0.0018252
2842	0.0032292
2854	0.0063252
2866	0.0092196
2878	0.0111996
2890	0.0113868
2902	0.0117576
2914	0.0144108
2926	0.0189324
2938	0.0259344
2950	0.0335772
2962	0.0351828
2974	0.0330012
2986	0.020556
2998	0.0120636
3010	0.0059976
3022	0.0025092
3034	0.00153
3046	0.0012132
3058	0.0011196
3070	0.0010116
3082	0.000774
3094	0.0006408
3106	0.0006048
3118	0.0006048
3130	0.0004212
3142	0.0004968
3154	0.0004644
3166	0.0004032
3178	0.00036
3190	0.0003564
3202	0.000234
3214	0.0002772
3226	0.0002772
3238	0.0001872
3250	0.00027
3262	0.0003024
3274	0.0002844
3286	0.0002088
3298	0.0003204
3310	0.000216
3322	0.000306
3334	0.0001872
3346	0.0002412
3358	0.000288
3370	0.0003024
3382	0.0001908
3394	0.0001584
3406	0.0001836
3418	0.0001692
3430	0.000126
3442	0.0001332
3454	0.0001368
3466	0.0001296
3478	0.0001152
3490	0.0001692
3502	0.000162
3514	6.84e-05
3526	0.0001332
3538	0.000108
3550	0.0001008
3562	8.28e-05
3574	0.0001692
3586	0.0001296
3598	0.0001044
3610	0.0001044
3622	0.0001908
3634	0.0001944
3646	0.0003204
3658	0.0001764
3670	0.0001224
3682	0.0001296
3694	0.0002304
3706	0.0002196
3718	0.0002304
3730	0.0002232
3742	0.0002376
3754	0.0002376
3766	0.0002844
3778	0.0002196
3790	0.0001908
3802	0.0002088
3814	0.0002664
3826	0.0003096
3838	0.0002592
