Infrared Spectrum: Formamide, N-cyanomethyl-
Formula: C3 H4 N2 O
CAS: 5018-27-9
State: LIQUID (NEAT)
Class: COBLENTZ III
Instrument: PERKIN-ELMER 21 (GRATING)
Instrument parameters: FILTER CHANGE ABOUT 1085 CM^-^1
Path length: CAPILLARY
Resolution: 2
Origin: SOUTHERN RESEARCH INSTITUTE
1/CM	TRANSMITTANCE
607	0.4364
615	0.4331
623	0.4333
631	0.4339
639	0.4342
647	0.433
655	0.4194
663	0.4169
671	0.4194
679	0.4313
687	0.4434
695	0.4537
703	0.4575
711	0.4663
719	0.4788
727	0.5003
735	0.5176
743	0.5259
751	0.5143
759	0.5009
767	0.4947
775	0.4994
783	0.5097
791	0.5377
799	0.5914
807	0.628
815	0.647
823	0.6547
831	0.6674
839	0.6813
847	0.6839
855	0.6851
863	0.6822
871	0.6747
879	0.6476
887	0.6134
895	0.505
903	0.3229
911	0.4734
919	0.5441
927	0.5972
935	0.6406
943	0.6432
951	0.6433
959	0.6321
967	0.5973
975	0.2969
983	0.4067
991	0.6065
999	0.6567
1007	0.6659
1015	0.6558
1023	0.6291
1031	0.6056
1039	0.5264
1047	0.5675
1055	0.6077
1063	0.6319
1071	0.6441
1079	0.6477
1087	0.651
1095	0.6575
1103	0.6545
1111	0.6484
1119	0.6546
1127	0.6413
1135	0.6428
1143	0.643
1151	0.6352
1159	0.6207
1167	0.6036
1175	0.5835
1183	0.5635
1191	0.5435
1199	0.5033
1207	0.4203
1215	0.3356
1223	0.1901
1231	0.1756
1239	0.1873
1247	0.2131
1255	0.2713
1263	0.2862
1271	0.2864
1279	0.3076
1287	0.4279
1295	0.4709
1303	0.4648
1311	0.4611
1319	0.4444
1327	0.4344
1335	0.4272
1343	0.3952
1351	0.2897
1359	0.2973
1367	0.3847
1375	0.3627
1383	0.215
1391	0.08
1399	0.087
1407	0.2235
1415	0.2929
1423	0.2215
1431	0.2963
1439	0.4085
1447	0.4486
1455	0.4581
1463	0.4359
1471	0.4169
1479	0.3486
1487	0.2951
1495	0.2459
1503	0.1183
1511	0.0851
1519	0.0823
1527	0.0994
1535	0.1131
1543	0.1825
1551	0.2298
1559	0.2566
1567	0.3832
1575	0.4393
1583	0.4599
1591	0.4559
1599	0.44
1607	0.428
1615	0.386
1623	0.334
1631	0.2645
1639	0.1918
1647	0.138
1655	0.0582
1663	0.0184
1671	0.0135
1679	0.0257
1687	0.0295
1695	0.0486
1703	0.0682
1711	0.0964
1719	0.2814
1727	0.3076
1735	0.4687
1743	0.4956
1751	0.5461
1759	0.5732
1767	0.5949
1775	0.6143
1783	0.6316
1791	0.6469
1799	0.6577
1807	0.6683
1815	0.6761
1823	0.6834
1831	0.6886
1839	0.6989
1847	0.7042
1855	0.7056
1863	0.7004
1871	0.6902
1879	0.6979
1887	0.6992
1895	0.6989
1903	0.7041
1911	0.7083
1919	0.7069
1927	0.7037
1935	0.7003
1943	0.6989
1951	0.6983
1959	0.6985
1967	0.699
1975	0.6995
1983	0.7003
1991	0.7004
1999	0.698
2007	0.6986
2015	0.7023
2023	0.7018
2031	0.6974
2039	0.6982
2047	0.7019
2055	0.6999
2063	0.6978
2071	0.6967
2079	0.6924
2087	0.6943
2095	0.6982
2103	0.7014
2111	0.7026
2119	0.7018
2127	0.7011
2135	0.7
2143	0.6998
2151	0.7008
2159	0.7005
2167	0.698
2175	0.6924
2183	0.6968
2191	0.6973
2199	0.6957
2207	0.6933
2215	0.691
2223	0.6883
2231	0.685
2239	0.6746
2247	0.658
2255	0.6288
2263	0.5968
2271	0.6013
2279	0.6524
2287	0.6922
2295	0.6974
2303	0.7
2311	0.7029
2319	0.7053
2327	0.7064
2335	0.7068
2343	0.7065
2351	0.7056
2359	0.703
2367	0.6958
2375	0.6972
2383	0.7006
2391	0.7044
2399	0.7078
2407	0.7101
2415	0.7114
2423	0.7106
2431	0.7088
2439	0.7003
2447	0.6996
2455	0.7006
2463	0.7
2471	0.696
2479	0.6924
2487	0.6905
2495	0.6887
2503	0.6886
2511	0.689
2519	0.6889
2527	0.6884
2535	0.6884
2543	0.6895
2551	0.6895
2559	0.6855
2567	0.6803
2575	0.6789
2583	0.6788
2591	0.6807
2599	0.6842
2607	0.688
2615	0.6906
2623	0.6922
2631	0.6924
2639	0.6896
2647	0.6879
2655	0.6849
2663	0.6761
2671	0.6736
2679	0.6697
2687	0.6546
2695	0.6514
2703	0.6455
2711	0.6373
2719	0.6297
2727	0.6236
2735	0.6206
2743	0.6181
2751	0.6119
2759	0.6079
2767	0.6009
2775	0.5892
2783	0.5874
2791	0.5867
2799	0.5861
2807	0.5848
2815	0.5806
2823	0.5728
2831	0.5641
2839	0.5507
2847	0.538
2855	0.5261
2863	0.5166
2871	0.5086
2879	0.5008
2887	0.4657
2895	0.4192
2903	0.392
2911	0.3821
2919	0.3787
2927	0.3775
2935	0.3786
2943	0.3841
2951	0.3886
2959	0.3899
2967	0.3905
2975	0.3845
2983	0.3675
2991	0.3467
2999	0.3212
3007	0.299
3015	0.2936
3023	0.2884
3031	0.2965
3039	0.3014
3047	0.302
3055	0.3039
3063	0.316
3071	0.3357
3079	0.3469
3087	0.3668
3095	0.3741
3103	0.3911
3111	0.395
3119	0.3946
3127	0.3895
3135	0.3663
3143	0.3489
3151	0.3239
3159	0.3033
3167	0.2788
3175	0.2588
3183	0.2454
3191	0.2255
3199	0.2131
3207	0.2037
3215	0.1972
3223	0.1875
3231	0.1673
3239	0.1483
3247	0.1431
3255	0.1365
3263	0.128
3271	0.1238
3279	0.1232
3287	0.123
3295	0.1218
3303	0.1176
3311	0.1096
3319	0.1029
3327	0.0994
3335	0.0987
3343	0.0989
3351	0.0973
3359	0.0998
3367	0.1016
3375	0.1038
3383	0.1069
3391	0.1114
3399	0.1168
3407	0.123
3415	0.1314
3423	0.1405
3431	0.1633
3439	0.1925
3447	0.2139
3455	0.2525
3463	0.2741
3471	0.287
3479	0.2969
3487	0.3098
3495	0.3207
3503	0.3266
3511	0.3302
3519	0.3314
3527	0.3323
3535	0.3333
3543	0.3363
3551	0.3416
3559	0.3483
3567	0.3541
3575	0.3585
3583	0.362
3591	0.3694
3599	0.3795
3607	0.3879
3615	0.405
3623	0.4135
3631	0.4195
3639	0.4536
3647	0.4719
3655	0.4911
3663	0.5047
3671	0.532
3679	0.5658
3687	0.5929
3695	0.6086
3703	0.6311
3711	0.6562
3719	0.6712
3727	0.6963
3735	0.7145
3743	0.7202
3751	0.7224
3759	0.7251
3767	0.7268
3775	0.7223
3783	0.7216
3791	0.7238
3799	0.725
