Infrared Spectrum: Cyclopentanone
Formula: C5 H8 O
CAS: 120-92-3
State: SOLUTION (10% CCl4 FOR 4000-1330, 10% CS2 FOR 1330-450 CM^-^1) VS SOLVENT
Boiling point: 125 C AT 630 mmHg
Class: COBLENTZ III
Instrument: CARY 90 (GRATING)
Instrument parameters: ORDER CHANGES: 3000, 2000, 1200 CM^-^1
Path length: 0.010 CM, AND 0.010 CM
Resolution: 2
Origin: WESTERN REGIONAL RES. USDA
1/CM	TRANSMITTANCE
460	0.6744
469	0.4766
478	0.7198
487	0.8344
496	0.8793
505	0.905
514	0.9119
523	0.9123
532	0.9043
541	0.8838
550	0.8557
559	0.82
568	0.7817
577	0.7077
586	0.709
595	0.8542
604	0.8947
613	0.9168
622	0.9291
631	0.9368
640	0.9357
649	0.9226
658	0.9054
667	0.945
676	0.9532
685	0.9508
694	0.9426
703	0.9324
712	0.9239
721	0.9411
730	0.9473
739	0.9497
748	0.9505
757	0.9456
766	0.9406
775	0.9334
784	0.9217
793	0.902
802	0.8127
811	0.8126
820	0.8296
829	0.5419
838	0.5755
847	0.8597
856	0.9171
865	0.9291
874	0.9285
883	0.9207
892	0.9069
901	0.9092
910	0.8405
919	0.8599
928	0.8964
937	0.874
946	0.8096
955	0.5023
964	0.5098
973	0.8335
982	0.9246
991	0.9352
1000	0.9339
1009	0.9267
1018	0.8992
1027	0.863
1036	0.9063
1045	0.9222
1054	0.9182
1063	0.9107
1072	0.9099
1081	0.9156
1090	0.9233
1099	0.9056
1108	0.8801
1117	0.8436
1126	0.7146
1135	0.3689
1144	0.0854
1153	0.0344
1162	0.3865
1171	0.5236
1180	0.5499
1189	0.6953
1198	0.7718
1207	0.7969
1216	0.8369
1225	0.7597
1234	0.7686
1243	0.8153
1252	0.7938
1261	0.5721
1270	0.6281
1279	0.544
1288	0.6177
1297	0.782
1306	0.7479
1315	0.6329
1324	0.8375
1333	0.8568
1342	0.8713
1351	0.874
1360	0.869
1369	0.8764
1378	0.8427
1387	0.7954
1396	0.7289
1405	0.4327
1414	0.3477
1423	0.7124
1432	0.8115
1441	0.8251
1450	0.6481
1459	0.6567
1468	0.7333
1477	0.8111
1486	0.8489
1495	0.8577
1504	0.8633
1513	0.8642
1522	0.8638
1531	0.8631
1540	0.8624
1549	0.8621
1558	0.8618
1567	0.861
1576	0.8599
1585	0.8545
1594	0.8429
1603	0.8374
1612	0.8268
1621	0.8155
1630	0.8363
1639	0.8554
1648	0.856
1657	0.8489
1666	0.8381
1675	0.8344
1684	0.8298
1693	0.7857
1702	0.7082
1711	0.6273
1720	0.4937
1729	0.0733
1738	0.049
1747	0.01
1756	0.0104
1765	0.2552
1774	0.5874
1783	0.6806
1792	0.7373
1801	0.7957
1810	0.8261
1819	0.8419
1828	0.8496
1837	0.8545
1846	0.8557
1855	0.8561
1864	0.8566
1873	0.8592
1882	0.8663
1891	0.8715
1900	0.8755
1909	0.8804
1918	0.8806
1927	0.8803
1936	0.8797
1945	0.8795
1954	0.8767
1963	0.8707
1972	0.8633
1981	0.8605
1990	0.8602
1999	0.8666
2008	0.8866
2017	0.8921
2026	0.8944
2035	0.8966
2044	0.8983
2053	0.9
2062	0.9017
2071	0.9032
2080	0.9035
2089	0.9038
2098	0.9041
2107	0.9044
2116	0.9052
2125	0.9058
2134	0.9065
2143	0.9068
2152	0.9068
2161	0.9068
2170	0.9068
2179	0.9063
2188	0.9057
2197	0.9051
2206	0.9045
2215	0.9039
2224	0.9038
2233	0.9038
2242	0.9038
2251	0.9029
2260	0.9017
2269	0.9005
2278	0.9003
2287	0.9002
2296	0.8999
2305	0.8987
2314	0.8975
2323	0.8963
2332	0.8952
2341	0.8941
2350	0.8973
2359	0.9038
2368	0.9109
2377	0.9111
2386	0.9104
2395	0.9096
2404	0.9089
2413	0.9082
2422	0.9078
2431	0.9077
2440	0.9076
2449	0.9075
2458	0.9074
2467	0.9074
2476	0.9077
2485	0.908
2494	0.9083
2503	0.9085
2512	0.9084
2521	0.9079
2530	0.9075
2539	0.907
2548	0.9066
2557	0.9062
2566	0.9058
2575	0.9053
2584	0.9056
2593	0.9058
2602	0.9062
2611	0.9065
2620	0.9068
2629	0.9071
2638	0.9075
2647	0.908
2656	0.9086
2665	0.9091
2674	0.9097
2683	0.9103
2692	0.9105
2701	0.9105
2710	0.9105
2719	0.9104
2728	0.9104
2737	0.9104
2746	0.9094
2755	0.9063
2764	0.9033
2773	0.9002
2782	0.8941
2791	0.8868
2800	0.8799
2809	0.8769
2818	0.8816
2827	0.8838
2836	0.8757
2845	0.8491
2854	0.7565
2863	0.6003
2872	0.4831
2881	0.3389
2890	0.4739
2899	0.5756
2908	0.6444
2917	0.5901
2926	0.6012
2935	0.5966
2944	0.375
2953	0.302
2962	0.1728
2971	0.1843
2980	0.3644
2989	0.5444
2998	0.7227
3007	0.7802
3016	0.8043
3025	0.8461
3034	0.8664
3043	0.8775
3052	0.8856
3061	0.8918
3070	0.8948
3079	0.8977
3088	0.9003
3097	0.9027
3106	0.9052
3115	0.9075
3124	0.9097
3133	0.9118
3142	0.914
3151	0.9156
3160	0.917
3169	0.9183
3178	0.9197
3187	0.921
3196	0.9224
3205	0.9237
3214	0.9251
3223	0.9263
3232	0.9273
3241	0.928
3250	0.9287
3259	0.9294
3268	0.9298
3277	0.9298
3286	0.9298
3295	0.9298
3304	0.9298
3313	0.9294
3322	0.9291
3331	0.9287
3340	0.9288
3349	0.9277
3358	0.926
3367	0.9243
3376	0.9226
3385	0.9209
3394	0.9188
3403	0.9163
3412	0.914
3421	0.9114
3430	0.9052
3439	0.8987
3448	0.8899
3457	0.8704
3466	0.8434
3475	0.8335
3484	0.843
3493	0.8583
3502	0.8702
3511	0.8795
3520	0.8865
3529	0.8921
3538	0.8922
3547	0.892
3556	0.891
3565	0.8932
3574	0.8979
3583	0.9025
3592	0.9044
3601	0.9052
3610	0.9059
3619	0.9067
3628	0.9076
3637	0.9085
3646	0.9093
3655	0.9085
3664	0.9075
3673	0.9053
3682	0.899
3691	0.8943
3700	0.8986
3709	0.9067
3718	0.9136
3727	0.9173
3736	0.9187
3745	0.92
3754	0.9205
3763	0.9203
3772	0.9202
3781	0.9178
3790	0.9154
3799	0.9129
3808	0.9113
3817	0.9117
3826	0.9138
3835	0.9166
3844	0.9178
3853	0.919
3862	0.9196
3871	0.9201
3880	0.9206
3889	0.921
3898	0.9216
3907	0.9223
3916	0.923
3925	0.9236
3934	0.9243
3943	0.9251
3952	0.926
3961	0.9269
3970	0.9272
3979	0.9271
3988	0.9269
3997	0.9268
