Infrared Spectrum: Cyclopentanone
Formula: C 5 H 8 O
CAS: 120-92-3
State: gas
Origin: Sadtler Research Labs Under US-EPA Contract
1/CM	ABSORBANCE
450	0.061969
462	0.0659814
474	0.0708854
486	0.0312074
498	0.00646439
510	0.00490402
522	0.00624148
534	0.0089164
546	0.0102539
558	0.017387
570	0.0298699
582	0.0356656
594	0.0254117
606	0.0142662
618	0.00624148
630	0.00267492
642	0.00178328
654	0.00022291
666	0.00200619
678	0.00156037
690	0.00312074
702	0.0089164
714	0.0118142
726	0.0102539
738	0.00512693
750	0.00401238
762	0.00312074
774	0.00044582
786	0.0153808
798	0.032099
810	0.0481486
822	0.0666501
834	0.066873
846	0.0512693
858	0.0191703
870	0.00958513
882	0.0111455
894	0.0102539
906	0.01226
918	0.0138204
930	0.0207306
942	0.0517151
954	0.0876036
966	0.0860433
978	0.0403467
990	0.0111455
1002	0.00713312
1014	0.0111455
1026	0.0167183
1038	0.0211764
1050	0.0153808
1062	0.0133746
1074	0.0135975
1086	0.0169412
1098	0.0325449
1110	0.0722228
1122	0.184124
1134	0.367356
1146	0.515368
1158	0.399901
1170	0.199727
1182	0.098972
1194	0.0575108
1206	0.0274179
1218	0.0227368
1230	0.0258576
1242	0.0356656
1254	0.0461424
1266	0.0601857
1278	0.0702166
1290	0.0686563
1302	0.0477027
1314	0.0338823
1326	0.0316532
1338	0.0240743
1350	0.0133746
1362	0.0178328
1374	0.0185015
1386	0.0356656
1398	0.0820309
1410	0.153362
1422	0.156037
1434	0.121263
1446	0.0673188
1458	0.0731145
1470	0.0532755
1482	0.0378947
1494	0.0189473
1506	0.019839
1518	0.0180557
1530	0.00936222
1542	0.00958513
1554	0.00579566
1566	0.0044582
1578	0.00713312
1590	0.0106997
1602	0.0109226
1614	0.0129288
1626	0.0158266
1638	0.012483
1650	0.0207306
1662	0.0176099
1674	0.0236285
1686	0.0332136
1698	0.04213
1710	0.0918389
1722	0.153585
1734	0.259467
1746	0.798909
1758	1.83633
1770	1.60495
1782	1.43398
1794	0.179443
1806	0.0670959
1818	0.0292012
1830	0.0280867
1842	0.0292012
1854	0.0242972
1866	0.0207306
1878	0.0135975
1890	0.00936222
1902	0.00601857
1914	0.00534984
1926	0.00401238
1938	0.00646439
1950	0.00824767
1962	0.0118142
1974	0.012483
1986	0.010031
1998	0.00557275
2010	0.00490402
2022	0.00468111
2034	0.00423529
2046	0.00579566
2058	0.00401238
2070	0.0044582
2082	0.00423529
2094	0.0044582
2106	0.0044582
2118	0.00468111
2130	0.00312074
2142	0.00289783
2154	0.00245201
2166	0.00267492
2178	0.00423529
2190	0.00490402
2202	0.00468111
2214	0.00534984
2226	0.00490402
2238	0.00401238
2250	0.0044582
2262	0.00490402
2274	0.00579566
2286	0.00624148
2298	0.00534984
2310	0.00534984
2322	0.00646439
2334	0.00534984
2346	0.00534984
2358	0.00334365
2370	0.00156037
2382	0.00289783
2394	0.00245201
2406	0.00289783
2418	0.00312074
2430	0.0022291
2442	0.00156037
2454	0.0022291
2466	0.00245201
2478	0.00334365
2490	0.00267492
2502	0.00066873
2514	0.00066873
2526	0.00022291
2538	0.00044582
2550	0.00111455
2562	0.00200619
2574	0.00200619
2586	0.00267492
2598	0.00312074
2610	0.00334365
2622	0.00356656
2634	0.00312074
2646	0.00245201
2658	0.00267492
2670	0.00245201
2682	0.00289783
2694	0.00267492
2706	0.00289783
2718	0.00334365
2730	0.00468111
2742	0.00490402
2754	0.00601857
2766	0.00802476
2778	0.00958513
2790	0.0120371
2802	0.0176099
2814	0.024743
2826	0.0274179
2838	0.0260805
2850	0.0294241
2862	0.0633064
2874	0.191034
2886	0.280198
2898	0.335702
2910	0.270167
2922	0.249882
2934	0.256346
2946	0.322774
2958	0.555938
2970	0.792891
2982	0.833238
2994	0.434452
3006	0.121486
3018	0.0363343
3030	0.0227368
3042	0.0225139
3054	0.024743
3066	0.0220681
3078	0.0167183
3090	0.0111455
3102	0.00780185
3114	0.00691021
3126	0.00601857
3138	0.00512693
3150	0.00579566
3162	0.00601857
3174	0.00624148
3186	0.00624148
3198	0.00601857
3210	0.00490402
3222	0.00401238
3234	0.00267492
3246	0.00267492
3258	0.00245201
3270	0.00245201
3282	0.00245201
3294	0.0022291
3306	0.00200619
3318	0.00200619
3330	0.00245201
3342	0.00200619
3354	0.00267492
3366	0.00423529
3378	0.00312074
3390	0.00312074
3402	0.00334365
3414	0.00334365
3426	0.00423529
3438	0.00468111
3450	0.00401238
3462	0.00601857
3474	0.0089164
3486	0.0169412
3498	0.0283096
3510	0.0361114
3522	0.0361114
3534	0.0218452
3546	0.0118142
3558	0.00601857
3570	0.00980804
3582	0.00490402
3594	0.00802476
3606	0.00267492
3618	0.00601857
3630	0.00713312
3642	0.00245201
3654	0.00289783
3666	0.00133746
3678	0.00713312
3690	0.0022291
3702	0.00490402
3714	0.00735603
3726	0.00824767
3738	0.00780185
3750	0.00334365
3762	0.00423529
3774	0.00624148
3786	0.00423529
3798	0.00579566
3810	0.00646439
3822	0.00869349
3834	0.00534984
3846	0.00824767
3858	0.00601857
3870	0.00780185
3882	0.00735603
3894	0.00713312
3906	0.00913931
3918	0.00802476
3930	0.00757894
3942	0.00579566
3954	0.0066873
3966	0.00490402
