Infrared Spectrum: 1-Pentene, 2-methyl-
Formula: C 6 H 12
CAS: 763-29-1
State: gas
Origin: Sadtler Research Labs Under US-EPA Contract
1/CM	ABSORBANCE
450	0.0126582
462	0.0142715
474	0.0054604
486	0.006205
498	0.008687
510	0.0172499
522	0.039712
534	0.0455447
546	0.0323901
558	0.013651
570	0.0065773
582	0.0040953
594	0.0032266
606	0.0023579
618	0.0014892
630	0.0017374
642	0.0023579
654	0.0028543
666	0.0021097
678	0.0029784
690	0.0048399
702	0.0069496
714	0.0090593
726	0.0166294
738	0.0243236
750	0.0208488
762	0.0104244
774	0.004964
786	0.0048399
798	0.0073219
810	0.0145197
822	0.0217175
834	0.0218416
846	0.0250682
858	0.0531148
870	0.159344
882	0.35294
894	0.4861
906	0.272027
918	0.0850085
930	0.0253164
942	0.0166294
954	0.0167535
966	0.0162571
978	0.0162571
990	0.0187391
1002	0.0171258
1014	0.0125341
1026	0.009928
1038	0.0107967
1050	0.0098039
1062	0.0106726
1074	0.0167535
1086	0.0270538
1098	0.0294117
1110	0.019856
1122	0.0094316
1134	0.0054604
1146	0.004964
1158	0.0053363
1170	0.0053363
1182	0.0058327
1194	0.0076942
1206	0.0135269
1218	0.0266815
1230	0.0332588
1242	0.0280466
1254	0.0268056
1266	0.0403325
1278	0.0438073
1290	0.0336311
1302	0.0243236
1314	0.0233308
1326	0.0230826
1338	0.0318937
1350	0.0361131
1362	0.0621741
1374	0.130057
1386	0.164805
1398	0.101762
1410	0.0636633
1422	0.0805409
1434	0.133283
1446	0.220526
1458	0.258624
1470	0.222511
1482	0.121866
1494	0.055845
1506	0.0244477
1518	0.0214693
1530	0.0208488
1542	0.01241
1554	0.0170017
1566	0.0179945
1578	0.0146438
1590	0.0206006
1602	0.021097
1614	0.0318937
1626	0.0651525
1638	0.13378
1650	0.196947
1662	0.167659
1674	0.0661453
1686	0.0179945
1698	0.0142715
1710	0.017374
1722	0.0150161
1734	0.0088111
1746	0.0120377
1758	0.0103003
1770	0.0177463
1782	0.0320178
1794	0.0309009
1806	0.0181186
1818	0.0069496
1830	0.0040953
1842	0.0043435
1854	0.0026061
1866	0.0032266
1878	0.0017374
1890	0.0016133
1902	0.0016133
1914	0.0022338
1926	0.0014892
1938	0.001241
1950	0.001241
1962	0.001241
1974	0.0014892
1986	0.001241
1998	0.001241
2010	0.0011169
2022	0.0016133
2034	0.0016133
2046	0.0023579
2058	0.0019856
2070	0.0018615
2082	0.0019856
2094	0.0017374
2106	0.0017374
2118	0.0016133
2130	0.0014892
2142	0.0014892
2154	0.001241
2166	0.0014892
2178	0.0021097
2190	0.0026061
2202	0.002482
2214	0.0014892
2226	0.0011169
2238	0.0014892
2250	0.0017374
2262	0.0014892
2274	0.0016133
2286	0.0023579
2298	0.0026061
2310	0.0027302
2322	0.0028543
2334	0.0039712
2346	0.0043435
2358	0.0042194
2370	0.0027302
2382	0.003723
2394	0.0031025
2406	0.003723
2418	0.0042194
2430	0.0038471
2442	0.0029784
2454	0.0026061
2466	0.0026061
2478	0.0026061
2490	0.0027302
2502	0.0026061
2514	0.0029784
2526	0.0034748
2538	0.0038471
2550	0.0045917
2562	0.004964
2574	0.004964
2586	0.0047158
2598	0.0050881
2610	0.0055845
2622	0.0058327
2634	0.0059568
2646	0.0073219
2658	0.0088111
2670	0.0109208
2682	0.01241
2694	0.0131546
2706	0.0134028
2718	0.0172499
2730	0.0234549
2742	0.0282948
2754	0.0258128
2766	0.0214693
2778	0.0240754
2790	0.0302804
2802	0.0400843
2814	0.0544799
2826	0.08687
2838	0.143211
2850	0.228344
2862	0.311863
2874	0.479274
2886	0.598038
2898	0.591212
2910	0.591709
2922	0.732811
2934	0.972324
2946	1.06354
2958	1.06031
2970	1.241
2982	0.999005
2994	0.464382
3006	0.214197
3018	0.128568
3030	0.0914617
3042	0.0765697
3054	0.0810373
3066	0.147059
3078	0.261355
3090	0.268304
3102	0.115289
3114	0.0378505
3126	0.02482
3138	0.0199801
3150	0.017374
3162	0.0152643
3174	0.0117895
3186	0.0098039
3198	0.0075701
3210	0.0057086
3222	0.0040953
3234	0.0026061
3246	0.0018615
3258	0.001241
3270	0.0022338
3282	0.0021097
3294	0.0031025
3306	0.0035989
3318	0.002482
3330	0.0027302
3342	0.0035989
3354	0.0031025
3366	0.0035989
3378	0.003723
3390	0.0034748
3402	0.0029784
3414	0.0034748
3426	0.0033507
3438	0.0033507
3450	0.0038471
3462	0.003723
3474	0.0044676
3486	0.0053363
3498	0.0045917
3510	0.0044676
3522	0.0053363
3534	0.0048399
3546	0.006205
3558	0.0058327
3570	0.0054604
3582	0.003723
3594	0.0052122
3606	0.0053363
3618	0.0064532
3630	0.0026061
3642	0.0067014
3654	0.0076942
3666	0.0069496
3678	0.0016133
3690	0.0027302
3702	0.0054604
3714	0.0055845
3726	0.0088111
3738	0.0057086
3750	0.0065773
3762	0.0069496
3774	0.007446
3786	0.0076942
3798	0.0052122
3810	0.004964
3822	0.0016133
3834	0.0032266
3846	0.0043435
3858	0.0054604
3870	0.0026061
3882	0.0048399
3894	0.0035989
3906	0.0048399
3918	0.0050881
3930	0.0042194
3942	0.0058327
3954	0.0070737
3966	0.0050881
