Infrared Spectrum: 1-PENTENE, 2-METHYL-
Formula: C6 H12
CAS: 763-29-1
State: SOLUTION (10% IN CCl4 FOR 3800-1300, 10% IN CS2 FOR 1300-650, AND 10% IN CCl4 FOR 650-250 CM^-^1) VERSUS SOLVENT
Class: COBLENTZ III
Instrument: PERKIN-ELMER 521 (GRATING)
Instrument parameters: FILTERS AT 3150, 2500, 2000, 1150, 700, 410; GRATING CHANGES AT 2000, 630 CM^-^1
Sampling: TRANSMISSION
Path length: 0.011, 0.011, AND 0.010 CM (CsBr CELL)
Resolution: 4
Origin: DOW CORNING CORP.
1/CM	TRANSMITTANCE
247.668	0.973
256.869	0.972
266.071	0.962
275.272	0.955
284.473	0.954
293.674	0.95
302.876	0.942
312.077	0.937
321.278	0.932
330.48	0.933
339.681	0.929
348.882	0.924
358.084	0.917
367.285	0.914
376.486	0.914
385.687	0.917
394.889	0.871
404.09	0.9
413.291	0.881
422.493	0.786
431.694	0.791
440.895	0.808
450.097	0.904
459.298	0.913
468.499	0.914
477.7	0.911
486.902	0.908
496.103	0.903
505.304	0.888
514.506	0.842
523.707	0.659
532.908	0.724
542.109	0.837
551.311	0.873
560.512	0.88
569.713	0.882
578.915	0.884
588.116	0.884
597.317	0.884
606.519	0.882
615.72	0.88
624.921	0.877
634.122	0.873
643.324	0.87
652.525	0.863
661.726	0.841
670.928	0.846
680.129	0.849
689.33	0.834
698.531	0.837
707.733	0.851
716.934	0.841
726.135	0.801
735.337	0.711
744.538	0.7799
753.739	0.84
762.941	0.848
772.142	0.84
781.343	0.837
790.544	0.84
799.746	0.828
808.947	0.779
818.148	0.755
827.35	0.794
836.551	0.822
845.752	0.802
854.954	0.7
864.155	0.477
873.356	0.289
882.557	0.022
891.759	0.1761
900.96	0.6019
910.161	0.717
919.363	0.78
928.564	0.795
937.765	0.8
946.966	0.784
956.168	0.703
965.369	0.747
974.57	0.775
983.772	0.761
992.973	0.777
1002.17	0.794
1011.38	0.779
1020.58	0.782
1029.78	0.782
1038.98	0.78
1048.18	0.784
1057.38	0.776
1066.58	0.766
1075.78	0.729
1084.99	0.6751
1094.19	0.733
1103.39	0.78
1112.59	0.801
1121.79	0.808
1130.99	0.823
1140.19	0.823
1149.39	0.827
1158.6	0.827
1167.8	0.826
1177	0.823
1186.2	0.813
1195.4	0.797
1204.6	0.764
1213.8	0.728
1223.01	0.755
1232.21	0.769
1241.41	0.758
1250.61	0.728
1259.81	0.713
1269.01	0.71
1278.21	0.74
1287.41	0.761
1296.62	0.784
1305.82	0.8
1315.02	0.809
1324.22	0.805
1333.42	0.786
1342.62	0.795
1351.82	0.751
1361.02	0.613
1370.23	0.343
1379.43	0.645
1388.63	0.718
1397.83	0.707
1407.03	0.653
1416.23	0.548
1425.43	0.451
1434.64	0.302
1443.84	0.171
1453.04	0.1979
1462.24	0.3568
1471.44	0.67
1480.64	0.762
1489.84	0.808
1499.04	0.842
1508.25	0.857
1517.45	0.871
1526.65	0.88
1535.85	0.881
1545.05	0.88
1554.25	0.873
1563.45	0.867
1572.65	0.855
1581.86	0.856
1591.06	0.852
1600.26	0.83
1609.46	0.786
1618.66	0.744
1627.86	0.6589
1637.06	0.4351
1646.26	0.2399
1655.47	0.693
1664.67	0.812
1673.87	0.837
1683.07	0.855
1692.27	0.859
1701.47	0.867
1710.67	0.871
1719.88	0.873
1729.08	0.874
1738.28	0.868
1747.48	0.866
1756.68	0.853
1765.88	0.824
1775.08	0.772
1784.28	0.812
1793.49	0.857
1802.69	0.874
1811.89	0.875
1821.09	0.881
1830.29	0.881
1839.49	0.881
1848.69	0.882
1857.89	0.884
1867.1	0.886
1876.3	0.886
1885.5	0.891
1894.7	0.889
1903.9	0.886
1913.1	0.886
1922.3	0.889
1931.51	0.891
1940.71	0.891
1949.91	0.889
1959.11	0.889
1968.31	0.889
1977.51	0.891
1986.71	0.893
1995.91	0.895
2005.12	0.897
2014.32	0.895
2023.52	0.892
2032.72	0.891
2041.92	0.888
2051.12	0.891
2060.32	0.891
2069.52	0.891
2078.73	0.889
2087.93	0.8874
2097.13	0.885
2106.33	0.884
2115.53	0.882
2124.73	0.882
2133.93	0.882
2143.13	0.882
2152.34	0.882
2161.54	0.882
2170.74	0.8809
2179.94	0.88
2189.14	0.877
2198.34	0.8777
2207.54	0.881
2216.75	0.881
2225.95	0.881
2235.15	0.881
2244.35	0.881
2253.55	0.881
2262.75	0.881
2271.95	0.88
2281.15	0.88
2290.36	0.88
2299.56	0.8775
2308.76	0.874
2317.96	0.8718
2327.16	0.871
2336.36	0.8723
2345.56	0.8742
2354.76	0.875
2363.97	0.875
2373.17	0.8742
2382.37	0.873
2391.57	0.873
2400.77	0.873
2409.97	0.873
2419.17	0.873
2428.38	0.873
2437.58	0.874
2446.78	0.874
2455.98	0.874
2465.18	0.874
2474.38	0.874
2483.58	0.874
2492.78	0.873
2501.99	0.873
2511.19	0.8738
2520.39	0.8724
2529.59	0.8684
2538.79	0.867
2547.99	0.867
2557.19	0.866
2566.39	0.866
2575.6	0.865
2584.8	0.864
2594	0.8609
2603.2	0.863
2612.4	0.864
2621.6	0.86
2630.8	0.8577
2640	0.8558
2649.21	0.849
2658.41	0.8435
2667.61	0.841
2676.81	0.844
2686.01	0.845
2695.21	0.841
2704.41	0.8266
2713.62	0.8078
2722.82	0.7761
2732.02	0.7944
2741.22	0.826
2750.42	0.8248
2759.62	0.8148
2768.82	0.8084
2778.02	0.7928
2787.23	0.7736
2796.43	0.7533
2805.63	0.6994
2814.83	0.6362
2824.03	0.5034
2833.23	0.4226
2842.43	0.3153
2851.63	0.3018
2860.84	0.1553
2870.04	0.066
2879.24	0.1331
2888.44	0.144
2897.64	0.1131
2906.84	0.0792
2916.04	0.0518
2925.25	0.0113
2934.45	0.0271
2943.65	0.056
2952.85	0.0072
2962.05	0.0112
2971.25	0.0453
2980.45	0.1788
2989.65	0.3618
2998.86	0.4813
3008.06	0.6007
3017.26	0.622
3026.46	0.6659
3035.66	0.7071
3044.86	0.7088
3054.06	0.6767
3063.26	0.5671
3072.47	0.34
3081.67	0.4441
3090.87	0.6337
3100.07	0.768
3109.27	0.8179
3118.47	0.8297
3127.67	0.8414
3136.87	0.846
3146.08	0.848
3155.28	0.8519
3164.48	0.858
3173.68	0.863
3182.88	0.866
3192.08	0.868
3201.28	0.8723
3210.49	0.8742
3219.69	0.8777
3228.89	0.8802
3238.09	0.884
3247.29	0.884
3256.49	0.884
3265.69	0.881
3274.89	0.88
3284.1	0.878
3293.3	0.88
3302.5	0.88
3311.7	0.881
3320.9	0.88
3330.1	0.88
3339.3	0.88
3348.5	0.88
3357.71	0.88
3366.91	0.88
3376.11	0.881
3385.31	0.882
3394.51	0.882
3403.71	0.882
3412.91	0.882
3422.12	0.8844
3431.32	0.884
3440.52	0.882
3449.72	0.885
3458.92	0.881
3468.12	0.885
3477.32	0.888
3486.52	0.885
3495.73	0.8873
3504.93	0.889
3514.13	0.889
3523.33	0.889
3532.53	0.889
3541.73	0.889
3550.93	0.8907
3560.13	0.8914
3569.34	0.893
3578.54	0.8942
3587.74	0.8891
3596.94	0.889
3606.14	0.889
3615.34	0.889
3624.54	0.889
3633.74	0.889
3642.95	0.888
3652.15	0.888
3661.35	0.888
3670.55	0.888
3679.75	0.888
3688.95	0.8888
3698.15	0.889
3707.36	0.889
3716.56	0.889
3725.76	0.889
3734.96	0.886
3744.16	0.884
3753.36	0.8815
3762.56	0.8841
3771.76	0.8886
3780.97	0.891
3790.17	0.891
3799.37	0.891
