Infrared Spectrum: Acetonitrile, chloro-
Formula: C2 H2 Cl N
CAS: 107-14-2
State: LIQUID (NEAT)
Class: COBLENTZ III
Instrument: PERKIN-ELMER 521 (GRATING)
Instrument parameters: FILTERS AT 3150, 2500, 2000, 1150, 700, 410. GRATING CHANGES: 2000, 630
Sampling: TRANSMISSION
Path length: CAPILLARY (BETWEEN CsBr PLATES)
Resolution: 2
Origin: SOUTHERN RESEARCH INSTITUTE
1/CM	TRANSMITTANCE
253	0.6498
263.051	0.6983
273.103	0.7484
283.154	0.794
293.206	0.8245
303.257	0.8471
313.309	0.8627
323.36	0.8682
333.412	0.8651
343.463	0.8334
353.515	0.8385
363.566	0.876
373.617	0.8818
383.669	0.8803
393.72	0.883
403.772	0.8835
413.823	0.8835
423.875	0.879
433.926	0.8747
443.978	0.8719
454.029	0.8688
464.081	0.8493
474.132	0.806
484.183	0.6283
494.235	0.5748
504.286	0.8322
514.338	0.8611
524.389	0.8695
534.441	0.869
544.492	0.8708
554.544	0.8773
564.595	0.8841
574.647	0.8705
584.698	0.8842
594.749	0.8789
604.801	0.8915
614.852	0.8757
624.904	0.8774
634.955	0.875
645.007	0.8731
655.058	0.8702
665.11	0.8703
675.161	0.8153
685.213	0.7698
695.264	0.7522
705.315	0.743
715.367	0.6679
725.418	0.3467
735.47	0.1011
745.521	0.3885
755.573	0.7177
765.624	0.7851
775.676	0.8297
785.727	0.8478
795.779	0.8678
805.83	0.8824
815.881	0.8865
825.933	0.888
835.984	0.8887
846.036	0.888
856.087	0.8856
866.139	0.8792
876.19	0.8675
886.242	0.8394
896.293	0.7771
906.345	0.6804
916.396	0.5409
926.447	0.1235
936.499	0.4612
946.55	0.766
956.602	0.8192
966.653	0.8146
976.705	0.8004
986.756	0.8454
996.808	0.8731
1006.86	0.8797
1016.91	0.8822
1026.96	0.8839
1037.01	0.8887
1047.06	0.8865
1057.12	0.8837
1067.17	0.8793
1077.22	0.8759
1087.27	0.8732
1097.32	0.8705
1107.37	0.8679
1117.43	0.8645
1127.48	0.8597
1137.53	0.8531
1147.58	0.8445
1157.63	0.8329
1167.68	0.8124
1177.73	0.778
1187.79	0.8057
1197.84	0.8302
1207.89	0.8327
1217.94	0.8304
1227.99	0.8186
1238.04	0.7796
1248.09	0.5445
1258.15	0.5458
1268.2	0.3085
1278.25	0.7231
1288.3	0.8118
1298.35	0.8377
1308.4	0.8465
1318.45	0.8472
1328.51	0.8508
1338.56	0.8553
1348.61	0.8506
1358.66	0.8365
1368.71	0.8179
1378.76	0.7956
1388.81	0.7626
1398.87	0.6913
1408.92	0.3619
1418.97	0.1861
1429.02	0.5727
1439.07	0.7574
1449.12	0.7965
1459.17	0.8023
1469.23	0.8118
1479.28	0.8154
1489.33	0.841
1499.38	0.8534
1509.43	0.8579
1519.48	0.8584
1529.53	0.856
1539.59	0.869
1549.64	0.8764
1559.69	0.8747
1569.74	0.8659
1579.79	0.847
1589.84	0.8465
1599.89	0.8352
1609.95	0.8213
1620	0.8168
1630.05	0.8318
1640.1	0.8246
1650.15	0.8438
1660.2	0.8472
1670.26	0.8283
1680.31	0.7525
1690.36	0.6693
1700.41	0.7605
1710.46	0.8138
1720.51	0.8296
1730.56	0.8368
1740.62	0.8417
1750.67	0.8447
1760.72	0.8479
1770.77	0.8562
1780.82	0.871
1790.87	0.874
1800.92	0.8704
1810.98	0.8687
1821.03	0.8754
1831.08	0.8824
1841.13	0.8843
1851.18	0.8857
1861.23	0.8871
1871.28	0.8876
1881.34	0.8877
1891.39	0.8875
1901.44	0.887
1911.49	0.8863
1921.54	0.8859
1931.59	0.8832
1941.64	0.8779
1951.7	0.8831
1961.75	0.8868
1971.8	0.8871
1981.85	0.8874
1991.9	0.8879
2001.95	0.8905
2012	0.8829
2022.06	0.8907
2032.11	0.891
2042.16	0.8907
2052.21	0.891
2062.26	0.8907
2072.31	0.8895
2082.36	0.8869
2092.42	0.8862
2102.47	0.8895
2112.52	0.8907
2122.57	0.8895
2132.62	0.8885
2142.67	0.8856
2152.72	0.881
2162.78	0.8778
2172.83	0.877
2182.88	0.8788
2192.93	0.8817
2202.98	0.8833
2213.03	0.8835
2223.09	0.8794
2233.14	0.868
2243.19	0.8309
2253.24	0.7134
2263.29	0.791
2273.34	0.869
2283.39	0.8699
2293.45	0.8597
2303.5	0.8227
2313.55	0.7866
2323.6	0.8144
2333.65	0.8478
2343.7	0.858
2353.75	0.8678
2363.81	0.8721
2373.86	0.8734
2383.91	0.8739
2393.96	0.8734
2404.01	0.8723
2414.06	0.8702
2424.11	0.8659
2434.17	0.8538
2444.22	0.8504
2454.27	0.8564
2464.32	0.8628
2474.37	0.8689
2484.42	0.8687
2494.47	0.8675
2504.53	0.8642
2514.58	0.8569
2524.63	0.8524
2534.68	0.8555
2544.73	0.858
2554.78	0.8621
2564.83	0.8658
2574.89	0.8648
2584.94	0.86
2594.99	0.8494
2605.04	0.8467
2615.09	0.8607
2625.14	0.8658
2635.19	0.8664
2645.25	0.8663
2655.3	0.8653
2665.35	0.8637
2675.4	0.8623
2685.45	0.8577
2695.5	0.8609
2705.55	0.8642
2715.61	0.864
2725.66	0.8616
2735.71	0.8558
2745.76	0.8557
2755.81	0.8599
2765.86	0.8612
2775.92	0.8603
2785.97	0.8571
2796.02	0.8529
2806.07	0.8482
2816.12	0.8415
2826.17	0.8333
2836.22	0.8332
2846.28	0.8338
2856.33	0.8334
2866.38	0.831
2876.43	0.8272
2886.48	0.8221
2896.53	0.8115
2906.58	0.7991
2916.64	0.7856
2926.69	0.7684
2936.74	0.7418
2946.79	0.6806
2956.84	0.5311
2966.89	0.2423
2976.94	0.4673
2987	0.5847
2997.05	0.5168
3007.1	0.1991
3017.15	0.2609
3027.2	0.5061
3037.25	0.6209
3047.3	0.6829
3057.36	0.7102
3067.41	0.7303
3077.46	0.7462
3087.51	0.7603
3097.56	0.7718
3107.61	0.781
3117.66	0.7902
3127.72	0.8038
3137.77	0.802
3147.82	0.8043
3157.87	0.8018
3167.92	0.8006
3177.97	0.7948
3188.02	0.7881
3198.08	0.8016
3208.13	0.8181
3218.18	0.8229
3228.23	0.8262
3238.28	0.8268
3248.33	0.8287
3258.38	0.8284
3268.44	0.8277
3278.49	0.8259
3288.54	0.824
3298.59	0.8206
3308.64	0.8171
3318.69	0.8141
3328.75	0.8095
3338.8	0.804
3348.85	0.7967
3358.9	0.7884
3368.95	0.7797
3379	0.7724
3389.05	0.769
3399.11	0.7723
3409.16	0.7797
3419.21	0.788
3429.26	0.7955
3439.31	0.8001
3449.36	0.8035
3459.41	0.805
3469.47	0.8044
3479.52	0.7985
3489.57	0.791
3499.62	0.7877
3509.67	0.792
3519.72	0.8001
3529.77	0.8062
3539.83	0.8054
3549.88	0.8036
3559.93	0.802
3569.98	0.8017
3580.03	0.8072
3590.08	0.814
3600.13	0.8194
3610.19	0.8217
3620.24	0.82
3630.29	0.8158
3640.34	0.8093
3650.39	0.8016
3660.44	0.7923
3670.49	0.7837
3680.55	0.7835
3690.6	0.7926
3700.65	0.8134
3710.7	0.8272
3720.75	0.8246
3730.8	0.8353
3740.85	0.8468
3750.91	0.8485
3760.96	0.8462
3771.01	0.8428
3781.06	0.8499
3791.11	0.8565
3801.16	0.8582
3811.21	0.8588
3821.27	0.8592
3831.32	0.8597
3841.37	0.8593
3851.42	0.8582
3861.47	0.8562
3871.52	0.8511
3881.58	0.848
3891.63	0.8496
3901.68	0.8494
3911.73	0.8453
3921.78	0.8353
3931.83	0.8178
3941.88	0.817
3951.94	0.8423
3961.99	0.8495
3972.04	0.8528
3982.09	0.8545
3992.14	0.856
4002.19	0.8566
4012.24	0.8565
