Infrared Spectrum: 3-Iodopropanol
Formula: C 3 H 7 I O
CAS: 627-32-7
State: gas
Origin: EPA-IR VAPOR PHASE LIBRARY
1/CM	ABSORBANCE
549.8	0.0009615
559.445	0.0004838
569.09	0.0004342
578.734	0.0007315
588.379	0.0012537
598.024	0.001839
607.669	0.001779
617.313	0.0008991
626.958	0.0005081
636.603	0.0004561
646.248	0.00032289
655.893	0.00028264
665.537	0.0005984
675.182	0.0005117
684.827	0.0006034
694.472	0.0005433
704.116	0.000715
713.761	0.0004854
723.406	0.0005141
733.051	0.001145
742.695	0.001729
752.34	0.002049
761.985	0.001599
771.63	0.0010133
781.275	0.0008772
790.919	0.0011593
800.564	0.0011535
810.209	0.0008431
819.854	0.0007761
829.498	0.001299
839.143	0.001529
848.788	0.002419
858.433	0.002819
868.078	0.003499
877.722	0.003889
887.367	0.003669
897.012	0.002769
906.657	0.002019
916.301	0.001549
925.946	0.001589
935.591	0.001609
945.236	0.002089
954.88	0.002449
964.525	0.002879
974.17	0.003839
983.815	0.004689
993.46	0.006109
1003.1	0.008549
1012.75	0.012089
1022.39	0.017019
1032.04	0.021659
1041.68	0.025359
1051.33	0.027229
1060.97	0.023419
1070.62	0.016249
1080.26	0.010079
1089.91	0.006909
1099.55	0.004799
1109.2	0.004339
1118.84	0.004129
1128.49	0.004259
1138.13	0.004439
1147.78	0.004939
1157.42	0.006549
1167.07	0.009049
1176.71	0.010989
1186.36	0.010339
1196	0.009579
1205.64	0.011199
1215.29	0.014629
1224.93	0.015279
1234.58	0.012779
1244.22	0.009419
1253.87	0.007259
1263.51	0.006539
1273.16	0.006279
1282.8	0.006539
1292.45	0.006009
1302.09	0.005119
1311.74	0.004419
1321.38	0.003969
1331.03	0.004119
1340.67	0.004649
1350.32	0.004999
1359.96	0.005009
1369.61	0.004809
1379.25	0.005069
1388.9	0.004909
1398.54	0.004299
1408.18	0.004029
1417.83	0.004349
1427.47	0.005119
1437.12	0.005109
1446.76	0.004039
1456.41	0.002929
1466.05	0.002949
1475.7	0.002959
1485.34	0.002419
1494.99	0.001519
1504.63	0.0010204
1514.28	0.0008058
1523.92	0.0006391
1533.57	0.0005218
1543.21	0.0004998
1552.86	0.0004658
1562.5	0.0003689
1572.15	0.000412
1581.79	0.00032315
1591.44	0.0003802
1601.08	0.00029239
1610.73	0.000260409
1620.37	0.00033589
1630.01	0.00027023
1639.66	0.0003484
1649.3	0.0002194
1658.95	0.00029778
1668.59	0.0001847
1678.24	0.0002046
1687.88	0.000115
1697.53	0.000146
1707.17	0.000151
1716.82	0.000167
1726.46	0.0001709
1736.11	0.0002222
1745.75	0.000264442
1755.4	0.0001911
1765.04	0.0002131
1774.69	0.0002413
1784.33	0.0001873
1793.98	0.00015
1803.62	0.00026931
1813.27	0.0001764
1822.91	0.0002227
1832.55	0.0002187
1842.2	0.000149
1851.84	0.00027617
1861.49	0.00029783
1871.13	0.00034011
1880.78	0.0002177
1890.42	0.00028744
1900.07	0.0004365
1909.71	0.0004516
1919.36	0.0004021
1929	0.0004175
1938.65	0.0003832
1948.29	0.00034518
1957.94	0.00030925
1967.58	0.00028936
1977.23	0.00028407
1986.87	0.00027984
1996.52	0.00033973
2006.16	0.00034909
2015.81	0.0003582
2025.45	0.0004534
2035.1	0.0005838
2044.74	0.0005518
2054.38	0.0004795
2064.03	0.0005787
2073.67	0.000445
2083.32	0.000487
2092.96	0.0005022
2102.61	0.0004695
2112.25	0.0004148
2121.9	0.0004459
2131.54	0.00035054
2141.19	0.0003721
2150.83	0.0004236
2160.48	0.00035683
2170.12	0.000394
2179.77	0.0003914
2189.41	0.000448
2199.06	0.0004412
2208.7	0.0004085
2218.35	0.0004157
2227.99	0.00033149
2237.64	0.0004187
2247.28	0.00034321
2256.92	0.00035081
2266.57	0.0004495
2276.21	0.0004339
2285.86	0.0003941
2295.5	0.0004205
2305.15	0.0004466
2314.79	0.0004662
2324.44	0.0004617
2334.08	0.000467
2343.73	0.0004861
2353.37	0.0005335
2363.02	0.0004238
2372.66	0.0004421
2382.31	0.0005166
2391.95	0.0004017
2401.6	0.0004672
2411.24	0.000543
2420.89	0.0005555
2430.53	0.0004688
2440.18	0.000501
2449.82	0.0004467
2459.47	0.000386
2469.11	0.0004953
2478.75	0.0004285
2488.4	0.0004297
2498.04	0.0003441
2507.69	0.0003895
2517.33	0.00034376
2526.98	0.0003134
2536.62	0.0003752
2546.27	0.0004511
2555.91	0.0003754
2565.56	0.0004505
2575.2	0.0003977
2584.85	0.000381
2594.49	0.0004736
2604.14	0.00047
2613.78	0.0004274
2623.43	0.0005056
2633.07	0.00051
2642.72	0.0005742
2652.36	0.0005381
2662.01	0.0005187
2671.65	0.0005529
2681.29	0.0007056
2690.94	0.0007449
2700.58	0.000747
2710.23	0.0007918
2719.87	0.0009528
2729.52	0.0009595
2739.16	0.0011699
2748.81	0.0012584
2758.45	0.0011641
2768.1	0.001399
2777.74	0.001489
2787.39	0.001489
2797.03	0.001659
2806.68	0.001719
2816.32	0.002049
2825.97	0.002599
2835.61	0.003349
2845.26	0.004249
2854.9	0.005539
2864.55	0.006989
2874.19	0.009289
2883.84	0.011699
2893.48	0.013049
2903.12	0.012679
2912.77	0.012899
2922.41	0.014519
2932.06	0.017109
2941.7	0.017869
2951.35	0.015989
2960.99	0.013649
2970.64	0.011179
2980.28	0.008479
2989.93	0.005879
2999.57	0.003829
3009.22	0.002629
3018.86	0.002159
3028.51	0.001699
3038.15	0.0011499
3047.8	0.0009302
3057.44	0.0006683
3067.09	0.0005477
3076.73	0.0005495
3086.38	0.00024923
3096.02	0.0004081
3105.67	0.0002358
3115.31	0.00033175
3124.95	0.00029543
3134.6	0.00031275
3144.24	0.00034446
3153.89	0.000179
3163.53	0.000111
3173.18	0.00032453
3182.82	0.0004551
3192.47	0.00025483
3202.11	0.0001663
3211.76	0.00027724
3221.4	0.0002576
3231.05	0.000125
3240.69	0.00025649
3250.34	0.0001794
3259.98	0.0003667
3269.63	0.00021
3279.27	5.7e-05
3288.92	0.000146
3298.56	0.000146
3308.21	0.0002148
3317.85	0.0003898
3327.49	0.000129
3337.14	0.0002489
3346.78	0.0003967
3356.43	0.0003983
3366.07	0.0002526
3375.72	0.00032953
3385.36	0.0002475
3395.01	0.000196
3404.65	0.00035635
3414.3	0.00028563
3423.94	0.0003601
3433.59	0.0002099
3443.23	0.0003924
3452.88	0.0004014
3462.52	0.00030374
3472.17	0.00031605
3481.81	0.0004175
3491.46	0.0003808
3501.1	0.000371
3510.75	0.0004126
3520.39	0.00035129
3530.04	0.000362
3539.68	0.0004583
3549.32	0.000504
3558.97	0.0004303
3568.61	0.000575
3578.26	0.0005777
3587.9	0.000688
3597.55	0.0010601
3607.19	0.001409
3616.84	0.002049
3626.48	0.001879
3636.13	0.001989
3645.77	0.002959
3655.42	0.005349
3665.06	0.007649
3674.71	0.007389
3684.35	0.005149
3694	0.002649
3703.64	0.001709
3713.29	0.0010247
3722.93	0.0008193
3732.58	0.0007093
3742.22	0.0005369
3751.86	0.000623
3761.51	0.000382
3771.15	0.0004623
3780.8	0.0004482
3790.44	0.00032984
3800.09	0.0002559
3809.73	0.0004043
3819.38	0.00028787
3829.02	0.0004178
3838.67	0.0003719
3848.31	0.0004514
3857.96	0.0004364
3867.6	0.00029782
3877.25	0.00030917
3886.89	0.0004039
3896.54	0.0003634
3906.18	0.0004765
3915.83	0.0005738
3925.47	0.00035782
3935.12	0.0004329
3944.76	0.0001682
3954.41	0.000135
3964.05	0.00025736
3973.69	0.00030559
3983.34	0.000148
3992.98	4e-05
