Infrared Spectrum: 3-Methyl-1,2-butadiene
Formula: C 5 H 8
CAS: 598-25-4
State: gas
Instrument: HP-GC/MS/IRD
Origin: NIST Mass Spectrometry Data Center
1/CM	ABSORBANCE
550	0.0008736
562	0.0017088
574	0.0035024
586	0.0029344
598	0.0034048
610	0.0016528
622	0.000592
634	0.0001136
646	0.0002848
658	0.0002064
670	0.000328
682	0.000424
694	0.0003424
706	0.00032
718	0.000112
730	0.0001072
742	0.0003008
754	0.0005392
766	0.0004896
778	0.0005168
790	0.0004368
802	0.0007856
814	0.0021696
826	0.005448
838	0.0104304
850	0.0099136
862	0.0114224
874	0.0058576
886	0.0020656
898	0.0007024
910	0.0003648
922	0.000264
934	0.0002032
946	0.0002224
958	0.0002944
970	0.0004448
982	0.0009984
994	0.001384
1006	0.0019488
1018	0.0013072
1030	0.0007104
1042	0.0004352
1054	0.0002576
1066	0.0001376
1078	0.0001008
1090	0.000104
1102	0.000176
1114	0.0001824
1126	0.000352
1138	0.000408
1150	0.0006832
1162	0.0012576
1174	0.0019456
1186	0.0021632
1198	0.002096
1210	0.0014944
1222	0.0009936
1234	0.0007792
1246	0.000744
1258	0.0012656
1270	0.0030224
1282	0.0037472
1294	0.0035472
1306	0.0020384
1318	0.0007264
1330	0.0006928
1342	0.0010784
1354	0.0019376
1366	0.0021952
1378	0.0027504
1390	0.0021376
1402	0.002504
1414	0.0032112
1426	0.0039744
1438	0.0048752
1450	0.004248
1462	0.004448
1474	0.0026368
1486	0.0016208
1498	0.0008704
1510	0.0005088
1522	0.0003856
1534	0.0003712
1546	0.0003872
1558	0.0003648
1570	0.000432
1582	0.0004464
1594	0.0004768
1606	0.00048
1618	0.000376
1630	0.0002768
1642	0.0002064
1654	0.0001824
1666	0.0002688
1678	0.0004752
1690	0.0010144
1702	0.0013984
1714	0.0014096
1726	0.000976
1738	0.0003776
1750	0.0002032
1762	0.0001088
1774	0.0001104
1786	0.0001136
1798	8.8e-05
1810	8.32e-05
1822	4.8e-05
1834	0.000104
1846	0.0001008
1858	7.52e-05
1870	9.76e-05
1882	0.0001536
1894	0.0002176
1906	0.0003712
1918	0.0008208
1930	0.0017856
1942	0.003432
1954	0.0048048
1966	0.0047504
1978	0.0030864
1990	0.0008
2002	0.0002848
2014	0.0002416
2026	0.0001856
2038	0.0001824
2050	0.0001856
2062	0.0001824
2074	0.0001488
2086	0.0001296
2098	0.000136
2110	0.0001168
2122	0.0001136
2134	0.000112
2146	0.0001312
2158	0.0001296
2170	0.000136
2182	8e-05
2194	0.0001328
2206	0.0001328
2218	0.0001024
2230	9.92e-05
2242	0.0001088
2254	8.8e-05
2266	7.84e-05
2278	0.0001312
2290	0.0001024
2302	0.0001408
2314	0.0001408
2326	0.0001616
2338	0.0001616
2350	0.0001968
2362	0.0002016
2374	0.0001888
2386	0.0001568
2398	0.0001472
2410	0.0001664
2422	0.0002288
2434	0.0002016
2446	0.0001904
2458	0.0001504
2470	0.0001632
2482	0.000144
2494	0.0001408
2506	0.0001712
2518	0.0001328
2530	0.0001504
2542	0.0002064
2554	0.0002
2566	0.0001952
2578	0.0002112
2590	0.0001696
2602	0.0001632
2614	0.000144
2626	0.0001584
2638	0.0001936
2650	0.0002768
2662	0.0002896
2674	0.0003216
2686	0.0003616
2698	0.0004528
2710	0.00068
2722	0.0007632
2734	0.0008064
2746	0.0005952
2758	0.0005008
2770	0.0005792
2782	0.0005968
2794	0.0008112
2806	0.0010976
2818	0.0013904
2830	0.0018432
2842	0.0030336
2854	0.0055552
2866	0.0081712
2878	0.0096192
2890	0.0101216
2902	0.0110768
2914	0.0138352
2926	0.0157824
2938	0.0156528
2950	0.0138448
2962	0.0091248
2974	0.0102672
2986	0.0108016
2998	0.0104608
3010	0.0075056
3022	0.0032944
3034	0.0023232
3046	0.0025824
3058	0.0033216
3070	0.002552
3082	0.0022848
3094	0.0017504
3106	0.0012528
3118	0.0009664
3130	0.0007312
3142	0.000568
3154	0.0004496
3166	0.0003904
3178	0.000208
3190	0.0002688
3202	0.000272
3214	0.0002464
3226	0.0002432
3238	0.0003728
3250	0.000304
3262	0.000232
3274	0.0001872
3286	0.0002016
3298	0.0001328
3310	0.0001744
3322	0.000152
3334	0.0002096
3346	0.000216
3358	0.0001552
3370	9.6e-05
3382	0.0001104
3394	0.000152
3406	9.44e-05
3418	9.12e-05
3430	0.0001376
3442	8.96e-05
3454	6.56e-05
3466	0.0001264
3478	6.88e-05
3490	5.6e-05
3502	0.0001296
3514	0.0001168
3526	0.0001328
3538	0.0001216
3550	0.0001056
3562	0.0001056
3574	7.2e-05
3586	0.0001088
3598	2.72e-05
3610	0.0001072
3622	3.84e-05
3634	9.28e-05
3646	0.0001136
3658	8.32e-05
3670	0.0001424
3682	0.0001152
3694	0
3706	9.44e-05
3718	0.0001408
3730	1.92e-05
3742	7.04e-05
3754	8.96e-05
3766	6.4e-05
3778	9.92e-05
3790	6.24e-05
3802	0.0001424
3814	0.0001696
3826	9.76e-05
3838	0.000224
