Infrared Spectrum: 1-Methylcyclopentene
Formula: C 6 H 10
CAS: 693-89-0
State: gas
Instrument: HP-GC/MS/IRD
Origin: NIST Mass Spectrometry Data Center
1/CM	ABSORBANCE
550	0.0005084
562	0.0001271
574	0.0002132
586	4.1e-06
598	0.0001271
610	0.0001394
622	0.0002132
634	0.0003895
646	0.0003936
658	0.0002747
670	0.0003075
682	0.0001927
694	0.0003034
706	0.0001353
718	0.000287
730	0.0003198
742	0.0005125
754	0.0009758
766	0.0018409
778	0.0030791
790	0.0047847
802	0.0041984
814	0.0034727
826	0.0019516
838	0.0012177
850	0.0006847
862	0.0006396
874	0.0007585
886	0.0009348
898	0.0009143
910	0.0010619
922	0.0010865
934	0.0009266
946	0.0006683
958	0.0004633
970	0.0006888
982	0.0013243
994	0.002788
1006	0.0033456
1018	0.0030996
1030	0.0019885
1042	0.001107
1054	0.0007995
1066	0.000779
1078	0.0004879
1090	0.0003444
1102	0.0002624
1114	0.000328
1126	0.0004141
1138	0.0005002
1150	0.0005576
1162	0.0005781
1174	0.000533
1186	0.0006888
1198	0.0008282
1210	0.001148
1222	0.0010947
1234	0.0009922
1246	0.0008897
1258	0.0009348
1270	0.0011562
1282	0.0013284
1294	0.001353
1306	0.0014473
1318	0.0015334
1330	0.0015211
1342	0.0013694
1354	0.0008569
1366	0.0010045
1378	0.0012956
1390	0.0015047
1402	0.0011275
1414	0.0013407
1426	0.0023821
1438	0.0038335
1450	0.0043952
1462	0.0039811
1474	0.0027306
1486	0.0015826
1498	0.0007995
1510	0.0005166
1522	0.0004264
1534	0.0004223
1546	0.0004797
1558	0.0006109
1570	0.0007093
1582	0.0008323
1594	0.000861
1606	0.0008036
1618	0.0006765
1630	0.0007175
1642	0.0010004
1654	0.0010578
1666	0.0009635
1678	0.0005535
1690	0.0002665
1702	0.0001435
1714	0.0001722
1726	9.02e-05
1738	7.79e-05
1750	8.2e-05
1762	0.0001353
1774	0.0001476
1786	0.0001927
1798	0.0001927
1810	0.000164
1822	0.0001722
1834	0.0001271
1846	0.0001763
1858	0.0001722
1870	0.0001927
1882	0.0001312
1894	0.000123
1906	0.0001107
1918	7.79e-05
1930	8.61e-05
1942	9.02e-05
1954	7.79e-05
1966	5.74e-05
1978	4.1e-05
1990	4.51e-05
2002	6.97e-05
2014	5.33e-05
2026	2.46e-05
2038	2.46e-05
2050	1.23e-05
2062	1.64e-05
2074	8.2e-06
2086	2.46e-05
2098	1.64e-05
2110	3.69e-05
2122	3.69e-05
2134	4.92e-05
2146	4.51e-05
2158	8.2e-05
2170	0.0001025
2182	7.38e-05
2194	6.15e-05
2206	4.92e-05
2218	5.74e-05
2230	6.56e-05
2242	5.74e-05
2254	8.61e-05
2266	7.38e-05
2278	7.79e-05
2290	8.2e-05
2302	0.0001066
2314	0.0001189
2326	0.0001394
2338	0.0001435
2350	0.0001599
2362	0.0001066
2374	8.2e-05
2386	6.97e-05
2398	3.28e-05
2410	4.1e-05
2422	1.23e-05
2434	6.56e-05
2446	5.33e-05
2458	9.02e-05
2470	8.61e-05
2482	8.61e-05
2494	9.43e-05
2506	8.61e-05
2518	6.56e-05
2530	0.0001025
2542	0.0001271
2554	0.0001148
2566	0.0001886
2578	0.0001763
2590	0.0002009
2602	0.0001722
2614	0.000123
2626	0.0001394
2638	0.0001476
2650	0.0001476
2662	0.0001845
2674	0.0001722
2686	0.0002337
2698	0.0003485
2710	0.0004879
2722	0.0007831
2734	0.0010373
2746	0.0012341
2758	0.0012833
2770	0.0012013
2782	0.0014719
2794	0.0018942
2806	0.002788
2818	0.0046248
2830	0.0089954
2842	0.0177776
2854	0.0255922
2866	0.029684
2878	0.0282367
2890	0.0270887
2902	0.0299833
2914	0.0339275
2926	0.0373182
2938	0.0403768
2950	0.0378225
2962	0.0388516
2974	0.0245631
2986	0.0157317
2998	0.0074456
3010	0.0046289
3022	0.0048503
3034	0.0073882
3046	0.0079253
3058	0.0082533
3070	0.0047109
3082	0.0024313
3094	0.001558
3106	0.0011685
3118	0.0008897
3130	0.0006888
3142	0.0005002
3154	0.0003567
3166	0.0002747
3178	0.0002542
3190	0.0002009
3202	0.000164
3214	0.0001148
3226	0.0001107
3238	8.2e-05
3250	0.000123
3262	0.0001107
3274	0.0001312
3286	0.0001558
3298	0.0001476
3310	0.0001517
3322	0.0001189
3334	0.0001394
3346	0.0001271
3358	8.2e-05
3370	9.02e-05
3382	0.0001025
3394	5.74e-05
3406	1.64e-05
3418	4.51e-05
3430	4.51e-05
3442	6.56e-05
3454	0.0001025
3466	7.79e-05
3478	8.61e-05
3490	0.0001353
3502	9.84e-05
3514	0.000123
3526	0.0001107
3538	0.0001107
3550	0.0001763
3562	0.000164
3574	0.000164
3586	0.0001599
3598	0.0001517
3610	0.0001927
3622	0.0001435
3634	0.0001927
3646	0.0001722
3658	0.0001804
3670	0.0001845
3682	0.0002173
3694	0.0002419
3706	0.0002542
3718	0.0001681
3730	0.000246
3742	0.0002132
3754	0.0002501
3766	0.0002214
3778	0.0001927
3790	0.0002378
3802	0.0002337
3814	0.0002747
3826	0.0002501
3838	0.0002583
