Infrared Spectrum: 1-CYCLOPENTENE, 1-METHYL
Formula: C6 H10
CAS: 693-89-0
State: SOLUTION (10% IN CCl4 FOR 3800-1300, 10% IN CS2 FOR 1300-650, AND 10% IN CCl4 FOR 650-250 CM^-^1) VERSUS SOLVENT
Class: COBLENTZ III
Instrument: PERKIN-ELMER 521 (GRATING)
Instrument parameters: FILTERS AT 3150, 2500, 2000, 1150, 700, 410; GRATING CHANGES AT 2000, 630 CM^-^1
Sampling: TRANSMISSION
Path length: 0.011, 0.011, AND 0.020 CM (CsBr CELL)
Resolution: 4
Origin: DOW CORNING CORP.
1/CM	TRANSMITTANCE
248.98	0.848
258.164	0.858
267.347	0.859
276.531	0.858
285.715	0.859
294.898	0.855
304.082	0.847
313.266	0.82
322.449	0.854
331.633	0.873
340.817	0.873
350.001	0.877
359.184	0.873
368.368	0.879
377.552	0.865
386.735	0.862
395.919	0.862
405.103	0.847
414.286	0.776
423.47	0.524
432.654	0.4491
441.837	0.784
451.021	0.846
460.205	0.862
469.388	0.865
478.572	0.868
487.756	0.869
496.94	0.862
506.123	0.861
515.307	0.862
524.491	0.861
533.674	0.858
542.858	0.859
552.042	0.859
561.225	0.859
570.409	0.861
579.593	0.862
588.776	0.866
597.96	0.868
607.144	0.868
616.327	0.866
625.511	0.842
634.695	0.799
643.879	0.769
653.062	0.795
662.246	0.807
671.43	0.822
680.613	0.824
689.797	0.822
698.981	0.82
708.164	0.818
717.348	0.814
726.532	0.81
735.715	0.8
744.899	0.787
754.083	0.76
763.266	0.718
772.45	0.625
781.634	0.451
790.818	0.417
800.001	0.505
809.185	0.519
818.369	0.6179
827.552	0.756
836.736	0.795
845.92	0.8
855.103	0.788
864.287	0.774
873.471	0.765
882.654	0.782
891.838	0.759
901.022	0.717
910.205	0.759
919.389	0.752
928.573	0.619
937.756	0.796
946.94	0.82
956.124	0.817
965.308	0.81
974.491	0.787
983.675	0.741
992.859	0.5121
1002.04	0.4169
1011.23	0.458
1020.41	0.576
1029.59	0.699
1038.78	0.734
1047.96	0.715
1057.14	0.635
1066.33	0.638
1075.51	0.693
1084.7	0.748
1093.88	0.76
1103.06	0.77
1112.25	0.762
1121.43	0.747
1130.61	0.759
1139.8	0.76
1148.98	0.76
1158.16	0.776
1167.35	0.78
1176.53	0.777
1185.72	0.765
1194.9	0.729
1204.08	0.708
1213.27	0.752
1222.45	0.751
1231.63	0.756
1240.82	0.747
1250	0.708
1259.19	0.7081
1268.37	0.74
1277.55	0.714
1286.74	0.634
1295.92	0.631
1305.1	0.813
1314.29	0.804
1323.47	0.734
1332.66	0.743
1341.84	0.825
1351.02	0.828
1360.21	0.82
1369.39	0.755
1378.57	0.699
1387.76	0.81
1396.94	0.807
1406.12	0.785
1415.31	0.741
1424.49	0.608
1433.68	0.373
1442.86	0.174
1452.04	0.5168
1461.23	0.608
1470.41	0.71
1479.59	0.784
1488.78	0.811
1497.96	0.826
1507.15	0.844
1516.33	0.857
1525.51	0.847
1534.7	0.836
1543.88	0.832
1553.06	0.832
1562.25	0.831
1571.43	0.829
1580.61	0.828
1589.8	0.832
1598.98	0.829
1608.17	0.831
1617.35	0.826
1626.53	0.824
1635.72	0.822
1644.9	0.782
1654.08	0.653
1663.27	0.822
1672.45	0.851
1681.64	0.858
1690.82	0.861
1700	0.862
1709.19	0.864
1718.37	0.868
1727.55	0.869
1736.74	0.869
1745.92	0.869
1755.1	0.869
1764.29	0.868
1773.47	0.862
1782.66	0.87
1791.84	0.864
1801.02	0.862
1810.21	0.865
1819.39	0.865
1828.57	0.868
1837.76	0.869
1846.94	0.869
1856.13	0.865
1865.31	0.865
1874.49	0.866
1883.68	0.87
1892.86	0.868
1902.04	0.869
1911.23	0.87
1920.41	0.87
1929.59	0.87
1938.78	0.87
1947.96	0.869
1957.15	0.869
1966.33	0.872
1975.51	0.872
1984.7	0.869
1993.88	0.869
2003.06	0.873
2012.25	0.873
2021.43	0.875
2030.62	0.875
2039.8	0.875
2048.98	0.873
2058.17	0.872
2067.35	0.872
2076.53	0.872
2085.72	0.87
2094.9	0.87
2104.08	0.8699
2113.27	0.869
2122.45	0.869
2131.64	0.868
2140.82	0.866
2150	0.8672
2159.19	0.868
2168.37	0.868
2177.55	0.866
2186.74	0.8686
2195.92	0.869
2205.11	0.869
2214.29	0.869
2223.47	0.869
2232.66	0.868
2241.84	0.868
2251.02	0.868
2260.21	0.868
2269.39	0.868
2278.57	0.868
2287.76	0.8676
2296.94	0.866
2306.13	0.8664
2315.31	0.8687
2324.49	0.8688
2333.68	0.8666
2342.86	0.865
2352.04	0.8657
2361.23	0.868
2370.41	0.869
2379.6	0.869
2388.78	0.8693
2397.96	0.868
2407.15	0.8652
2416.33	0.865
2425.51	0.865
2434.7	0.864
2443.88	0.864
2453.06	0.8617
2462.25	0.861
2471.43	0.861
2480.62	0.8594
2489.8	0.858
2498.98	0.857
2508.17	0.857
2517.35	0.857
2526.53	0.8564
2535.72	0.8532
2544.9	0.85
2554.09	0.851
2563.27	0.849
2572.45	0.843
2581.64	0.8474
2590.82	0.853
2600	0.858
2609.19	0.8553
2618.37	0.855
2627.55	0.8579
2636.74	0.859
2645.92	0.857
2655.11	0.8522
2664.29	0.85
2673.47	0.851
2682.66	0.8471
2691.84	0.8417
2701.02	0.8321
2710.21	0.8314
2719.39	0.8213
2728.58	0.7492
2737.76	0.7983
2746.94	0.811
2756.13	0.8002
2765.31	0.786
2774.49	0.7741
2783.68	0.757
2792.86	0.7361
2802.04	0.65
2811.23	0.612
2820.41	0.5052
2829.6	0.3507
2838.78	0.1249
2847.96	0.028
2857.15	0.042
2866.33	0.1042
2875.51	0.144
2884.7	0.0976
2893.88	0.0509
2903.07	0.0429
2912.25	0.0289
2921.43	0.0258
2930.62	0.026
2939.8	0.032
2948.98	0.0296
2958.17	0.0282
2967.35	0.0516
2976.53	0.1591
2985.72	0.3762
2994.9	0.4671
3004.09	0.6398
3013.27	0.6713
3022.45	0.6537
3031.64	0.5935
3040.82	0.4081
3050	0.4075
3059.19	0.6465
3068.37	0.7533
3077.56	0.7817
3086.74	0.8092
3095.92	0.8137
3105.11	0.8312
3114.29	0.8344
3123.47	0.844
3132.66	0.8537
3141.84	0.857
3151.02	0.859
3160.21	0.8642
3169.39	0.8675
3178.58	0.869
3187.76	0.8727
3196.94	0.876
3206.13	0.875
3215.31	0.876
3224.49	0.876
3233.68	0.877
3242.86	0.877
3252.05	0.877
3261.23	0.876
3270.41	0.875
3279.6	0.873
3288.78	0.87
3297.96	0.8692
3307.15	0.8693
3316.33	0.87
3325.52	0.872
3334.7	0.872
3343.88	0.875
3353.07	0.876
3362.25	0.876
3371.43	0.876
3380.62	0.877
3389.8	0.879
3398.98	0.88
3408.17	0.88
3417.35	0.88
3426.54	0.88
3435.72	0.88
3444.9	0.881
3454.09	0.881
3463.27	0.88
3472.45	0.879
3481.64	0.88
3490.82	0.88
3500.01	0.881
3509.19	0.88
3518.37	0.879
3527.56	0.8741
3536.74	0.872
3545.92	0.868
3555.11	0.87
3564.29	0.8795
3573.47	0.884
3582.66	0.8865
3591.84	0.884
3601.03	0.881
3610.21	0.881
3619.39	0.8845
3628.58	0.883
3637.76	0.8831
3646.94	0.883
3656.13	0.881
3665.31	0.8839
3674.5	0.8779
3683.68	0.875
3692.86	0.8739
3702.05	0.8731
3711.23	0.876
3720.41	0.8811
3729.6	0.8846
3738.78	0.888
3747.96	0.8844
3757.15	0.879
3766.33	0.877
3775.52	0.879
3784.7	0.881
3793.88	0.8852
3803.07	0.8836
