Infrared Spectrum: (Trimethylsilyl)acetylene
Formula: C5 H10 Si
CAS: 1066-54-2
State: gas
Origin: EPA-IR VAPOR PHASE LIBRARY
1/CM	ABSORBANCE
549.8	0.022857
559.445	0.027087
569.09	0.017527
578.734	0.009387
588.379	0.005177
598.024	0.002687
607.669	0.002757
617.313	0.005377
626.958	0.013737
636.603	0.035307
646.248	0.061387
655.893	0.077047
665.537	0.107807
675.182	0.179807
684.827	0.108097
694.472	0.062437
704.116	0.057137
713.761	0.052737
723.406	0.040797
733.051	0.031597
742.695	0.035817
752.34	0.053627
761.985	0.079447
771.63	0.079107
781.275	0.063597
790.919	0.043127
800.564	0.035117
810.209	0.042227
819.854	0.070857
829.498	0.147157
839.143	0.269647
848.788	0.388867
858.433	0.356077
868.078	0.242017
877.722	0.151097
887.367	0.098847
897.012	0.067347
906.657	0.047097
916.301	0.030907
925.946	0.020047
935.591	0.012577
945.236	0.007717
954.88	0.005527
964.525	0.004467
974.17	0.003707
983.815	0.003367
993.46	0.002857
1003.1	0.002537
1012.75	0.003567
1022.39	0.003287
1032.04	0.002677
1041.68	0.001567
1051.33	0.001507
1060.97	0.0014546
1070.62	0.001857
1080.26	0.0007314
1089.91	0.0013819
1099.55	0.001727
1109.2	0.0008886
1118.84	0.0008353
1128.49	0.001737
1138.13	0.001857
1147.78	0.001747
1157.42	0.0014091
1167.07	0.001777
1176.71	0.001567
1186.36	0.002607
1196	0.003367
1205.64	0.005317
1215.29	0.006757
1224.93	0.014047
1234.58	0.030897
1244.22	0.065497
1253.87	0.101677
1263.51	0.102457
1273.16	0.069887
1282.8	0.032517
1292.45	0.013877
1302.09	0.010337
1311.74	0.017657
1321.38	0.035147
1331.03	0.038247
1340.67	0.032287
1350.32	0.020267
1359.96	0.007647
1369.61	0.005727
1379.25	0.005517
1388.9	0.007007
1398.54	0.008687
1408.18	0.009997
1417.83	0.009887
1427.47	0.008157
1437.12	0.006217
1446.76	0.005057
1456.41	0.004647
1466.05	0.003797
1475.7	0.002957
1485.34	0.002057
1494.99	0.001547
1504.63	0.0013619
1514.28	0.001487
1523.92	0.001727
1533.57	0.001597
1543.21	0.001697
1552.86	0.001567
1562.5	0.0012993
1572.15	0.0010676
1581.79	0.0009609
1591.44	0.0010599
1601.08	0.0011832
1610.73	0.0011098
1620.37	0.0011428
1630.01	0.0009441
1639.66	0.0009212
1649.3	0.0007083
1658.95	0.0009501
1668.59	0.0008223
1678.24	0.0009675
1687.88	0.0008163
1697.53	0.0007465
1707.17	0.0006422
1716.82	0.0006529
1726.46	0.000678
1736.11	0.0006328
1745.75	0.00057521
1755.4	0.00053959
1765.04	0.0008108
1774.69	0.0004596
1784.33	0.000653
1793.98	0.0008857
1803.62	0.0010077
1813.27	0.0011516
1822.91	0.0011069
1832.55	0.0011019
1842.2	0.0008518
1851.84	0.0007459
1861.49	0.0006929
1871.13	0.0009977
1880.78	0.0012102
1890.42	0.001747
1900.07	0.002257
1909.71	0.002727
1919.36	0.002367
1929	0.002147
1938.65	0.002087
1948.29	0.002467
1957.94	0.002587
1967.58	0.002607
1977.23	0.002487
1986.87	0.002507
1996.52	0.003437
2006.16	0.007477
2015.81	0.017637
2025.45	0.032187
2035.1	0.039627
2044.74	0.032767
2054.38	0.015137
2064.03	0.002497
2073.67	0.0012533
2083.32	0.0013237
2092.96	0.0013127
2102.61	0.001727
2112.25	0.001917
2121.9	0.001707
2131.54	0.001557
2141.19	0.0014757
2150.83	0.0014001
2160.48	0.0011365
2170.12	0.0010407
2179.77	0.0008426
2189.41	0.0008797
2199.06	0.0008044
2208.7	0.0006973
2218.35	0.0006565
2227.99	0.0005857
2237.64	0.00054799
2247.28	0.000768
2256.92	0.0008016
2266.57	0.00051723
2276.21	0.0006278
2285.86	0.0006857
2295.5	0.000385
2305.15	0.0004466
2314.79	0.0004746
2324.44	0.0004658
2334.08	0.0006819
2343.73	0.00053887
2353.37	0.000461
2363.02	0.000304
2372.66	0.00051633
2382.31	0.0004208
2391.95	0.0004016
2401.6	0.000382
2411.24	0.000352
2420.89	0.0006837
2430.53	0.000327
2440.18	0.00048577
2449.82	0.000349
2459.47	0.0006056
2469.11	0.000326
2478.75	0.0008536
2488.4	0.0008359
2498.04	0.0009825
2507.69	0.0009348
2517.33	0.000490149
2526.98	0.0004539
2536.62	0.0007556
2546.27	0.0006123
2555.91	0.0007016
2565.56	0.0006861
2575.2	0.0008669
2584.85	0.0006785
2594.49	0.0010609
2604.14	0.0011059
2613.78	0.0010704
2623.43	0.0011173
2633.07	0.001807
2642.72	0.0010633
2652.36	0.0006952
2662.01	0.0006428
2671.65	0.001051
2681.29	0.0011102
2690.94	0.0012813
2700.58	0.0014417
2710.23	0.0011987
2719.87	0.0009126
2729.52	0.00116
2739.16	0.0014234
2748.81	0.001537
2758.45	0.002047
2768.1	0.002207
2777.74	0.002477
2787.39	0.003267
2797.03	0.004357
2806.68	0.005537
2816.32	0.005327
2825.97	0.005607
2835.61	0.005867
2845.26	0.006517
2854.9	0.007137
2864.55	0.007907
2874.19	0.009007
2883.84	0.011607
2893.48	0.017927
2903.12	0.023097
2912.77	0.023417
2922.41	0.018167
2932.06	0.014167
2941.7	0.018977
2951.35	0.041517
2960.99	0.067857
2970.64	0.078597
2980.28	0.057397
2989.93	0.028207
2999.57	0.011187
3009.22	0.006357
3018.86	0.005257
3028.51	0.005427
3038.15	0.006017
3047.8	0.006987
3057.44	0.007727
3067.09	0.008487
3076.73	0.008677
3086.38	0.007677
3096.02	0.007187
3105.67	0.006087
3115.31	0.005397
3124.95	0.004467
3134.6	0.003497
3144.24	0.002707
3153.89	0.001887
3163.53	0.002107
3173.18	0.002627
3182.82	0.003527
3192.47	0.003277
3202.11	0.002407
3211.76	0.001747
3221.4	0.0013656
3231.05	0.0011609
3240.69	0.0014152
3250.34	0.002517
3259.98	0.003827
3269.63	0.008107
3279.27	0.014077
3288.92	0.027667
3298.56	0.042697
3308.21	0.055437
3317.85	0.034907
3327.49	0.009647
3337.14	0.001857
3346.78	0.0011675
3356.43	0.0011381
3366.07	0.0009874
3375.72	0.0009197
3385.36	0.00051588
3395.01	0.0006411
3404.65	0.0007983
3414.3	0.0013082
3423.94	0.001777
3433.59	0.0011533
3443.23	0.0007986
3452.88	0.0004488
3462.52	0.000744
3472.17	0.000339
3481.81	0.00052942
3491.46	0.0007293
3501.1	0.00056331
3510.75	0.00052784
3520.39	0.0006711
3530.04	0.0009973
3539.68	0.0011162
3549.32	0.000759
3558.97	0.0011958
3568.61	0.0010487
3578.26	0.0012375
3587.9	0.0014141
3597.55	0.001617
3607.19	0.0011229
3616.84	0.0013563
3626.48	0.001547
3636.13	0.001617
3645.77	0.001717
3655.42	0.002467
3665.06	0.002397
3674.71	0.002197
3684.35	0.002247
3694	0.001517
3703.64	0.001497
3713.29	0.001917
3722.93	0.001667
3732.58	0.002357
3742.22	0.002117
3751.86	0.002217
3761.51	0.002387
3771.15	0.002037
3780.8	0.001627
3790.44	0.001607
3800.09	0.001677
3809.73	0.001917
3819.38	0.0014204
3829.02	0.0013385
3838.67	0.0010151
3848.31	0.000817
3857.96	0.0005973
3867.6	0.000258
3877.25	0.0006231
3886.89	0.0007793
3896.54	0.0008206
3906.18	0.0005928
3915.83	0.0007229
3925.47	0.0006059
3935.12	0.00056773
3944.76	0.0009379
3954.41	0.0011521
3964.05	0.001897
3973.69	0.0006843
3983.34	0.00055572
3992.98	0.00051412
