Infrared Spectrum: Pyrrole
Formula: C 4 H 5 N
CAS: 109-97-7
State: gas
Origin: Sadtler Research Labs Under US-EPA Contract
1/CM	ABSORBANCE
450	0.194446
462	0.218687
474	0.354747
486	0.317735
498	0.169945
510	0.123983
522	0.0467436
534	0.0105998
546	0.00799333
558	0.00851463
570	0.00112949
582	0.00660318
594	0.00529992
606	0.00321471
618	0.00460485
630	0.00321471
642	0.00260652
654	0.00495239
666	0.0198964
678	0.0919233
690	0.276465
702	0.37169
714	0.234674
726	0.294537
738	0.432248
750	0.361437
762	0.104348
774	0.0174637
786	0.00304094
798	0.00477862
810	0.00547369
822	0.00425732
834	0.0038229
846	0.0131195
858	0.0301487
870	0.0328422
882	0.0356224
894	0.020939
906	0.0111212
918	0.013467
930	0.0390109
942	0.0993084
954	0.158129
966	0.19992
978	0.220946
990	0.208
1002	0.209912
1014	0.130674
1026	0.164819
1038	0.159085
1050	0.113557
1062	0.145009
1074	0.0885348
1086	0.0470042
1098	0.0279766
1110	0.00947036
1122	0.0106867
1134	0.0125982
1146	0.0127719
1158	0.0106867
1170	0.00547369
1182	0.00147703
1194	0.00156391
1206	0.000955724
1218	0.0016508
1230	0.00225898
1242	0.00234587
1254	0.00260652
1266	0.00390978
1278	0.00556058
1290	0.00799333
1302	0.00938347
1314	0.00894905
1326	0.00721137
1338	0.005995
1350	0.00460485
1362	0.005995
1374	0.00990478
1386	0.0249357
1398	0.0586467
1410	0.0939216
1422	0.0900987
1434	0.0842775
1446	0.0630778
1458	0.0408355
1470	0.0380552
1482	0.0397929
1494	0.0499583
1506	0.053173
1518	0.0555189
1530	0.0841906
1542	0.0776743
1554	0.0656843
1566	0.0519566
1578	0.0224161
1590	0.00825398
1602	0.00191145
1614	0.00112949
1626	0.00112949
1638	0.000521304
1650	0.00243275
1662	0.00660318
1674	0.0150309
1686	0.014249
1698	0.0187669
1710	0.0204177
1722	0.0114687
1734	0.0101654
1746	0.0108605
1758	0.00330159
1770	0.0016508
1782	0.00104261
1794	0.000781956
1806	0.000955724
1818	0.00086884
1830	0.000608188
1842	0.00104261
1854	0.000781956
1866	0.000955724
1878	0.00112949
1890	0.00086884
1902	0.000781956
1914	0.00130326
1926	0.000695072
1938	0.00112949
1950	0.00104261
1962	0.00112949
1974	0.00156391
1986	0.0016508
1998	0.0016508
2010	0.0016508
2022	0.00156391
2034	0.00199833
2046	0.00312782
2058	0.00225898
2070	0.00304094
2082	0.00260652
2094	0.00147703
2106	0.00330159
2118	0.00321471
2130	0.00356224
2142	0.00356224
2154	0.00243275
2166	0.00234587
2178	0.00139014
2190	0.00182456
2202	0.00225898
2214	0.00173768
2226	0.00295406
2238	0.00243275
2250	0.00295406
2262	0.00390978
2274	0.00573434
2286	0.00634253
2298	0.00503927
2310	0.00443108
2322	0.00408355
2334	0.00278029
2346	0.00312782
2358	0.0038229
2370	0.00347536
2382	0.00295406
2394	0.0021721
2406	0.00199833
2418	0.00251964
2430	0.00390978
2442	0.00521304
2454	0.00686384
2466	0.00738514
2478	0.00564746
2490	0.00425732
2502	0.00347536
2514	0.00469174
2526	0.00851463
2538	0.0110343
2550	0.0120769
2562	0.0100785
2574	0.00773268
2586	0.00608188
2598	0.00564746
2610	0.00460485
2622	0.0026934
2634	0.00173768
2646	0.00086884
2658	0.000521304
2670	0.0021721
2682	0.00330159
2694	0.00338848
2706	0.00356224
2718	0.00295406
2730	0.0021721
2742	0.00243275
2754	0.0026934
2766	0.00399666
2778	0.00443108
2790	0.00556058
2802	0.005995
2814	0.00503927
2826	0.00443108
2838	0.00390978
2850	0.00347536
2862	0.00443108
2874	0.00460485
2886	0.00399666
2898	0.00338848
2910	0.00390978
2922	0.00425732
2934	0.00564746
2946	0.00677695
2958	0.00573434
2970	0.00460485
2982	0.00330159
2994	0.00191145
3006	0.00139014
3018	0.00321471
3030	0.00225898
3042	0.00295406
3054	0.00469174
3066	0.00356224
3078	0.00556058
3090	0.0106867
3102	0.0241538
3114	0.0377945
3126	0.0507403
3138	0.0514353
3150	0.0386634
3162	0.0224161
3174	0.00556058
3186	0.000955724
3198	0.000173768
3210	0
3222	0.000608188
3234	0.000608188
3246	0.000521304
3258	0.000781956
3270	0.00112949
3282	0.00112949
3294	0.000695072
3306	0.00112949
3318	0.00156391
3330	0.00112949
3342	0.0021721
3354	0.000521304
3366	0.00086884
3378	0.00104261
3390	0.00130326
3402	0.0016508
3414	0.00086884
3426	0.00182456
3438	0.00295406
3450	0.00425732
3462	0.00912282
3474	0.0197227
3486	0.048655
3498	0.0938347
3510	0.213213
3522	0.266213
3534	0.236324
3546	0.23841
3558	0.0904462
3570	0.0174637
3582	0.00425732
3594	0.00260652
3606	0.00147703
3618	0.00182456
3630	0.000955724
3642	0.00156391
3654	0.0016508
3666	0.00147703
3678	0.00191145
3690	0.00234587
3702	0.00225898
3714	0.00251964
3726	0.00243275
3738	0.00234587
3750	0.00234587
3762	0.00347536
3774	0.00390978
3786	0.0038229
3798	0.00312782
3810	0.00399666
3822	0.0038229
3834	0.00460485
3846	0.00356224
3858	0.00356224
3870	0.00469174
3882	0.00347536
3894	0.00321471
3906	0.00234587
3918	0.00130326
3930	0.00260652
3942	0.00251964
3954	0.00564746
3966	0.00729826
