Infrared Spectrum: ACRYLIC ACID, METHYL ESTER
Formula: C4 H6 O2
CAS: 96-33-3
State: GAS (25 mmHg, N2 ADDED, TOTAL PRESSURE 600 mmHg)
Class: COBLENTZ
Instrument: DOW KBr FOREPRISM-GRATING
Instrument parameters: GRATING CHANGED AT 5.0, 7.5, 15.0 MICRON
Sampling: TRANSMISSION
Path length: 5 CM
Resolution: 2
Origin: DOW CHEMICAL COMPANY
1/CM	TRANSMITTANCE
384.075	0.979
393.443	0.976
402.81	0.973
412.178	0.967
421.546	0.959
430.914	0.95
440.281	0.944
449.649	0.941
459.017	0.934
468.384	0.932
477.752	0.937
487.12	0.94
496.487	0.944
505.855	0.935
515.223	0.931
524.591	0.934
533.958	0.943
543.326	0.953
552.694	0.957
562.061	0.957
571.429	0.962
580.797	0.965
590.165	0.97
599.532	0.978
608.9	0.975
618.268	0.973
627.635	0.978
637.003	0.979
646.371	0.969
655.738	0.94
665.106	0.947
674.474	0.983
683.842	1
693.209	1.004
702.577	1.005
711.945	1.005
721.312	1.005
730.68	1.005
740.048	1.007
749.416	1.007
758.783	1.004
768.151	0.994
777.519	0.982
786.886	0.95
796.254	0.88
805.622	0.8
814.989	0.705
824.357	0.776
833.725	0.813
843.093	0.813
852.46	0.848
861.828	0.864
871.196	0.943
880.563	0.96
889.931	0.96
899.299	0.96
908.667	0.965
918.034	0.963
927.402	0.956
936.77	0.921
946.137	0.855
955.505	0.762
964.873	0.609
974.24	0.623
983.608	0.587
992.976	0.648
1002.34	0.638
1011.71	0.72
1021.08	0.804
1030.45	0.912
1039.81	0.899
1049.18	0.87
1058.55	0.731
1067.92	0.508
1077.29	0.511
1086.65	0.553
1096.02	0.89
1105.39	0.937
1114.76	0.922
1124.12	0.909
1133.49	0.899
1142.86	0.884
1152.23	0.862
1161.59	0.775
1170.96	0.5009
1180.33	0.19
1189.7	0.068
1199.07	0.049
1208.43	0.059
1217.8	0.112
1227.17	0.546
1236.54	0.642
1245.9	0.692
1255.27	0.65
1264.64	0.32
1274.01	0.205
1283.37	0.212
1292.74	0.381
1302.11	0.466
1311.48	0.534
1320.85	0.7091
1330.21	0.862
1339.58	0.884
1348.95	0.892
1358.32	0.89
1367.68	0.887
1377.05	0.892
1386.42	0.855
1395.79	0.428
1405.15	0.335
1414.52	0.412
1423.89	0.763
1433.26	0.536
1442.63	0.5039
1451.99	0.5421
1461.36	0.788
1470.73	0.813
1480.1	0.846
1489.46	0.87
1498.83	0.887
1508.2	0.89
1517.57	0.889
1526.94	0.903
1536.3	0.899
1545.67	0.909
1555.04	0.899
1564.41	0.911
1573.77	0.913
1583.14	0.913
1592.51	0.905
1601.88	0.889
1611.24	0.855
1620.61	0.813
1629.98	0.711
1639.35	0.72
1648.72	0.769
1658.08	0.893
1667.45	0.905
1676.82	0.905
1686.19	0.903
1695.55	0.884
1704.92	0.871
1714.29	0.797
1723.66	0.6219
1733.02	0.2949
1742.39	0.064
1751.76	0.087
1761.13	0.102
1770.5	0.4061
1779.86	0.7401
1789.23	0.909
1798.6	0.937
1807.97	0.947
1817.33	0.947
1826.7	0.947
1836.07	0.943
1845.44	0.943
1854.8	0.947
1864.17	0.95
1873.54	0.951
1882.91	0.954
1892.28	0.954
1901.64	0.944
1911.01	0.932
1920.38	0.919
1929.75	0.913
1939.11	0.928
1948.48	0.943
1957.85	0.948
1967.22	0.953
1976.59	0.951
1985.95	0.95
1995.32	0.947
2004.69	0.94
2014.06	0.9345
2023.42	0.932
2032.79	0.9306
2042.16	0.9231
2051.53	0.9172
2060.89	0.915
2070.26	0.9251
2079.63	0.9491
2089	0.954
2098.37	0.953
2107.73	0.95
2117.1	0.951
2126.47	0.951
2135.84	0.954
2145.2	0.956
2154.57	0.956
2163.94	0.9575
2173.31	0.96
2182.67	0.962
2192.04	0.963
2201.41	0.963
2210.78	0.963
2220.15	0.963
2229.51	0.963
2238.88	0.963
2248.25	0.963
2257.62	0.965
2266.98	0.965
2276.35	0.9649
2285.72	0.96
2295.09	0.963
2304.45	0.967
2313.82	0.975
2323.19	0.9809
2332.56	0.981
2341.93	0.978
2351.29	0.976
2360.66	0.975
2370.03	0.973
2379.4	0.967
2388.76	0.963
2398.13	0.9629
2407.5	0.963
2416.87	0.966
2426.23	0.97
2435.6	0.972
2444.97	0.972
2454.34	0.972
2463.71	0.972
2473.07	0.972
2482.44	0.972
2491.81	0.972
2501.18	0.975
2510.54	0.975
2519.91	0.975
2529.28	0.975
2538.65	0.975
2548.02	0.975
2557.38	0.976
2566.75	0.975
2576.12	0.975
2585.49	0.973
2594.85	0.97
2604.22	0.97
2613.59	0.971
2622.96	0.973
2632.32	0.975
2641.69	0.975
2651.06	0.975
2660.43	0.975
2669.8	0.973
2679.16	0.973
2688.53	0.972
2697.9	0.97
2707.27	0.973
2716.63	0.975
2726	0.975
2735.37	0.975
2744.74	0.975
2754.1	0.975
2763.47	0.975
2772.84	0.973
2782.21	0.973
2791.58	0.973
2800.94	0.972
2810.31	0.9686
2819.68	0.9609
2829.05	0.9398
2838.41	0.9219
2847.78	0.9
2857.15	0.9018
2866.52	0.9157
2875.88	0.928
2885.25	0.9238
2894.62	0.9118
2903.99	0.8898
2913.36	0.8711
2922.72	0.879
2932.09	0.886
2941.46	0.881
2950.83	0.7103
2960.19	0.6093
2969.56	0.6062
2978.93	0.7355
2988.3	0.8386
2997.66	0.797
3007.03	0.7552
3016.4	0.806
3025.77	0.8104
3035.14	0.8041
3044.5	0.8592
3053.87	0.8824
3063.24	0.9306
3072.61	0.9408
3081.97	0.941
3091.34	0.941
3100.71	0.9351
3110.08	0.9226
3119.45	0.922
3128.81	0.9562
3138.18	0.978
3147.55	0.978
3156.92	0.978
3166.28	0.979
3175.65	0.9802
3185.02	0.981
3194.39	0.983
3203.75	0.9814
3213.12	0.981
3222.49	0.981
3231.86	0.981
3241.23	0.982
3250.59	0.982
3259.96	0.982
3269.33	0.983
3278.7	0.983
3288.06	0.983
3297.43	0.985
3306.8	0.985
3316.17	0.985
3325.53	0.985
3334.9	0.985
3344.27	0.985
3353.64	0.985
3363.01	0.985
3372.37	0.983
3381.74	0.9827
3391.11	0.983
3400.48	0.9845
3409.84	0.9852
3419.21	0.985
3428.58	0.982
3437.95	0.9794
3447.31	0.981
3456.68	0.9788
3466.05	0.9729
3475.42	0.9629
3484.79	0.957
3494.15	0.9624
3503.52	0.9792
3512.89	0.988
3522.26	0.989
3531.62	0.989
3540.99	0.988
3550.36	0.989
3559.73	0.991
3569.1	0.994
3578.46	0.994
3587.83	0.9911
3597.2	0.991
3606.57	0.991
3615.93	0.991
3625.3	0.991
3634.67	0.991
3644.04	0.9919
3653.4	0.992
3662.77	0.991
3672.14	0.991
3681.51	0.991
3690.88	0.985
3700.24	0.9888
3709.61	0.9905
3718.98	0.991
3728.35	0.989
3737.71	0.989
3747.08	0.9911
3756.45	0.992
3765.82	0.9947
3775.18	0.995
3784.55	0.997
3793.92	1
