Infrared Spectrum: 2-PROPENOIC ACID, METHYL ESTER
Formula: C4 H6 O2
CAS: 96-33-3
State: SOLUTION (5% IN CCl4 FOR 3800-1300, 5% IN CS2 FOR 1300-600, AND 5% IN CCl4 FOR 600-240 CM^-^1) VERSUS SOLVENT
Class: COBLENTZ III
Instrument: PERKIN-ELMER 521 (GRATING)
Instrument parameters: FILTERS AT 3150, 2500, 2000, 1150, 700, 410; GRATING CHANGES AT 2000, 630 CM^-^1
Sampling: TRANSMISSION
Path length: 0.010, 0.010, AND 0.020 CM (CsBr CELL)
Resolution: 4
Origin: DOW CORNING CORP.
1/CM	TRANSMITTANCE
230.905	0.828
239.872	0.829
248.839	0.826
257.807	0.826
266.774	0.817
275.741	0.812
284.708	0.8
293.675	0.81
302.642	0.817
311.61	0.81
320.577	0.8
329.544	0.7691
338.511	0.697
347.478	0.489
356.446	0.4069
365.413	0.6179
374.38	0.737
383.347	0.7879
392.314	0.805
401.282	0.817
410.249	0.828
419.216	0.822
428.183	0.817
437.15	0.809
446.117	0.812
455.085	0.788
464.052	0.779
473.019	0.788
481.986	0.807
490.953	0.817
499.921	0.815
508.888	0.809
517.855	0.802
526.822	0.802
535.789	0.809
544.757	0.819
553.724	0.824
562.691	0.828
571.658	0.828
580.625	0.828
589.592	0.826
598.56	0.824
607.527	0.824
616.494	0.833
625.461	0.76
634.428	0.85
643.396	0.833
652.363	0.815
661.33	0.675
670.297	0.829
679.264	0.85
688.231	0.857
697.199	0.862
706.166	0.868
715.133	0.862
724.1	0.862
733.067	0.868
742.035	0.871
751.002	0.869
759.969	0.866
768.936	0.859
777.903	0.854
786.871	0.814
795.838	0.743
804.805	0.3904
813.772	0.3448
822.739	0.732
831.706	0.743
840.674	0.671
849.641	0.513
858.608	0.692
867.575	0.828
876.542	0.848
885.51	0.854
894.477	0.854
903.444	0.854
912.411	0.854
921.378	0.852
930.346	0.845
939.313	0.814
948.28	0.746
957.247	0.5651
966.214	0.192
975.181	0.427
984.149	0.1512
993.116	0.4599
1002.08	0.449
1011.05	0.6418
1020.02	0.772
1028.98	0.795
1037.95	0.781
1046.92	0.743
1055.89	0.6181
1064.85	0.293
1073.82	0.3233
1082.79	0.7179
1091.75	0.796
1100.72	0.815
1109.69	0.815
1118.66	0.807
1127.62	0.784
1136.59	0.753
1145.56	0.718
1154.53	0.635
1163.49	0.4722
1172.46	0.2431
1181.43	0.036
1190.39	0.079
1199.36	0.012
1208.33	0.029
1217.3	0.293
1226.26	0.4909
1235.23	0.559
1244.2	0.564
1253.16	0.526
1262.13	0.3731
1271.1	0.034
1280.07	0.1019
1289.03	0.227
1298	0.342
1306.97	0.414
1315.93	0.5968
1324.9	0.734
1333.87	0.796
1342.84	0.809
1351.8	0.807
1360.77	0.812
1369.74	0.809
1378.7	0.789
1387.67	0.755
1396.64	0.5239
1405.61	0.0788
1414.57	0.6609
1423.54	0.711
1432.51	0.5134
1441.48	0.071
1450.44	0.536
1459.41	0.604
1468.38	0.6919
1477.34	0.77
1486.31	0.802
1495.28	0.81
1504.25	0.821
1513.21	0.809
1522.18	0.8379
1531.15	0.852
1540.11	0.859
1549.08	0.859
1558.05	0.852
1567.02	0.848
1575.98	0.847
1584.95	0.845
1593.92	0.826
1602.88	0.796
1611.85	0.7371
1620.82	0.5851
1629.79	0.592
1638.75	0.4246
1647.72	0.776
1656.69	0.791
1665.65	0.777
1674.62	0.774
1683.59	0.737
1692.56	0.651
1701.52	0.63
1710.49	0.5361
1719.46	0.394
1728.43	0.0361
1737.39	0.001
1746.36	0.065
1755.33	0.437
1764.29	0.631
1773.26	0.718
1782.23	0.76
1791.2	0.7959
1800.16	0.814
1809.13	0.831
1818.1	0.848
1827.06	0.852
1836.03	0.857
1845	0.857
1853.97	0.854
1862.93	0.855
1871.9	0.857
1880.87	0.864
1889.83	0.862
1898.8	0.854
1907.77	0.843
1916.74	0.836
1925.7	0.826
1934.67	0.817
1943.64	0.821
1952.6	0.84
1961.57	0.852
1970.54	0.855
1979.51	0.854
1988.47	0.85
1997.44	0.862
2006.41	0.8615
2015.38	0.855
2024.34	0.851
2033.31	0.84
2042.28	0.8355
2051.24	0.8309
2060.21	0.828
2069.18	0.8431
2078.15	0.8571
2087.11	0.861
2096.08	0.858
2105.05	0.857
2114.01	0.854
2122.98	0.854
2131.95	0.8545
2140.92	0.8641
2149.88	0.8671
2158.85	0.869
2167.82	0.869
2176.78	0.869
2185.75	0.871
2194.72	0.869
2203.69	0.8699
2212.65	0.869
2221.62	0.869
2230.59	0.869
2239.55	0.8649
2248.52	0.862
2257.49	0.864
2266.46	0.868
2275.42	0.8628
2284.39	0.859
2293.36	0.8632
2302.33	0.868
2311.29	0.869
2320.26	0.869
2329.23	0.868
2338.19	0.8658
2347.16	0.8614
2356.13	0.8568
2365.1	0.8544
2374.06	0.854
2383.03	0.854
2392	0.854
2400.96	0.852
2409.93	0.8523
2418.9	0.8546
2427.87	0.8592
2436.83	0.8653
2445.8	0.8677
2454.77	0.864
2463.73	0.8567
2472.7	0.8576
2481.67	0.862
2490.64	0.8557
2499.6	0.859
2508.57	0.859
2517.54	0.8567
2526.5	0.857
2535.47	0.857
2544.44	0.854
2553.41	0.855
2562.37	0.855
2571.34	0.8537
2580.31	0.8493
2589.27	0.845
2598.24	0.8477
2607.21	0.8542
2616.18	0.855
2625.14	0.857
2634.11	0.8576
2643.08	0.855
2652.05	0.855
2661.01	0.8542
2669.98	0.8543
2678.95	0.8548
2687.91	0.854
2696.88	0.852
2705.85	0.855
2714.82	0.8554
2723.78	0.8584
2732.75	0.861
2741.72	0.861
2750.68	0.859
2759.65	0.857
2768.62	0.8548
2777.59	0.8525
2786.55	0.852
2795.52	0.852
2804.49	0.852
2813.45	0.85
2822.42	0.8395
2831.39	0.8127
2840.36	0.811
2849.32	0.7986
2858.29	0.771
2867.26	0.8288
2876.22	0.8255
2885.19	0.8046
2894.16	0.7957
2903.13	0.7626
2912.09	0.7798
2921.06	0.784
2930.03	0.7799
2939	0.7599
2947.96	0.5965
2956.93	0.383
2965.9	0.7127
2974.86	0.7558
2983.83	0.7377
2992.8	0.6568
3001.77	0.6347
3010.73	0.6831
3019.7	0.7032
3028.67	0.6933
3037.63	0.6974
3046.6	0.7748
3055.57	0.8107
3064.54	0.8148
3073.5	0.8197
3082.47	0.8273
3091.44	0.831
3100.4	0.8285
3109.37	0.8143
3118.34	0.8389
3127.31	0.8494
3136.27	0.8537
3145.24	0.854
3154.21	0.854
3163.17	0.855
3172.14	0.857
3181.11	0.859
3190.08	0.859
3199.04	0.8614
3208.01	0.8638
3216.98	0.862
3225.95	0.8657
3234.91	0.8648
3243.88	0.8678
3252.85	0.8684
3261.81	0.869
3270.78	0.868
3279.75	0.871
3288.72	0.869
3297.68	0.869
3306.65	0.871
3315.62	0.871
3324.58	0.869
3333.55	0.869
3342.52	0.868
3351.49	0.866
3360.45	0.868
3369.42	0.868
3378.39	0.869
3387.35	0.873
3396.32	0.873
3405.29	0.871
3414.26	0.869
3423.22	0.864
3432.19	0.8568
3441.16	0.8403
3450.12	0.8249
3459.09	0.8417
3468.06	0.8577
3477.03	0.869
3485.99	0.873
3494.96	0.8749
3503.93	0.875
3512.9	0.875
3521.86	0.875
3530.83	0.875
3539.8	0.875
3548.76	0.875
3557.73	0.875
3566.7	0.876
3575.67	0.876
3584.63	0.885
3593.6	0.878
3602.57	0.876
3611.53	0.877
3620.5	0.878
3629.47	0.8805
3638.44	0.876
3647.4	0.8815
3656.37	0.878
3665.34	0.877
3674.3	0.88
3683.27	0.877
3692.24	0.876
3701.21	0.88
3710.17	0.881
3719.14	0.885
3728.11	0.887
3737.07	0.888
3746.04	0.899
3755.01	0.8853
3763.98	0.883
3772.94	0.881
3781.91	0.88
3790.88	0.8821
