Infrared Spectrum: 2-Propenoic acid, methyl ester
Formula: C 4 H 6 O 2
CAS: 96-33-3
State: gas
Origin: Sadtler Research Labs Under US-EPA Contract
1/CM	ABSORBANCE
450	0.00131401
462	0.00386475
474	0.00657007
486	0.00966188
498	0.0102802
510	0.00958458
522	0.0119807
534	0.013372
546	0.0119034
558	0.00958458
570	0.00888892
582	0.0143769
594	0.0129083
606	0.019401
618	0.0182416
630	0.0183189
642	0.0239614
654	0.0316137
666	0.021488
678	0.021488
690	0.0217199
702	0.0166957
714	0.01886
726	0.0170049
738	0.0163092
750	0.0185508
762	0.0211015
774	0.0211788
786	0.0366378
798	0.0549567
810	0.0891211
822	0.0780679
834	0.0837878
846	0.0683288
858	0.0539519
870	0.0333141
882	0.0245025
894	0.0244252
906	0.0220291
918	0.0210242
930	0.0259711
942	0.0445219
954	0.0728119
966	0.126609
978	0.117798
990	0.140522
1002	0.112155
1014	0.0844834
1026	0.0461451
1038	0.03486
1050	0.0619906
1062	0.1423
1074	0.178242
1086	0.153508
1098	0.0480775
1110	0.0295267
1122	0.0305315
1134	0.0328504
1146	0.0445219
1158	0.0806187
1170	0.241624
1182	0.478765
1194	0.77295
1206	0.62323
1218	0.430147
1230	0.162474
1242	0.134648
1254	0.190919
1266	0.334842
1278	0.397219
1290	0.293876
1302	0.165566
1314	0.118107
1326	0.0609085
1338	0.033546
1350	0.029604
1362	0.0299905
1374	0.0314591
1386	0.0564253
1398	0.177006
1410	0.173991
1422	0.119189
1434	0.14029
1446	0.161237
1458	0.0908989
1470	0.0432079
1482	0.0391886
1494	0.0302223
1506	0.0279808
1518	0.0251982
1530	0.022261
1542	0.0225701
1554	0.0215653
1566	0.0207151
1578	0.0211788
1590	0.0233431
1602	0.0286764
1614	0.040348
1626	0.0582031
1638	0.0637684
1650	0.0540292
1662	0.0265122
1674	0.0231885
1686	0.0245798
1698	0.0291402
1710	0.0448311
1722	0.1103
1734	0.296581
1746	0.611945
1758	0.557529
1770	0.383615
1782	0.123749
1794	0.0360195
1806	0.0173141
1818	0.0136039
1830	0.0130629
1842	0.0143769
1854	0.0129083
1866	0.0123672
1878	0.0126764
1890	0.0121353
1902	0.0139904
1914	0.017546
1926	0.0211015
1938	0.0193238
1950	0.0157682
1962	0.0126764
1974	0.0112078
1986	0.0112851
1998	0.0121353
2010	0.0132174
2022	0.0147633
2034	0.0166957
2046	0.0184735
2058	0.0168503
2070	0.0130629
2082	0.0104348
2094	0.0108213
2106	0.0109759
2118	0.00966188
2130	0.00896622
2142	0.00788409
2154	0.00803868
2166	0.0077295
2178	0.00711114
2190	0.00703384
2202	0.00718843
2214	0.00726573
2226	0.0061836
2238	0.00672466
2250	0.00664737
2262	0.00657007
2274	0.00703384
2286	0.00657007
2298	0.00687925
2310	0.00749762
2322	0.0078068
2334	0.00718843
2346	0.00865704
2358	0.0103575
2370	0.00950728
2382	0.00672466
2394	0.00672466
2406	0.0061836
2418	0.00626089
2430	0.00548795
2442	0.0046377
2454	0.00479229
2466	0.00517877
2478	0.00494688
2490	0.00494688
2502	0.00456041
2514	0.00394204
2526	0.00486959
2538	0.00417393
2550	0.00417393
2562	0.00409663
2574	0.00448311
2586	0.00432852
2598	0.00517877
2610	0.00479229
2622	0.00425122
2634	0.00347827
2646	0.00340098
2658	0.00363286
2670	0.00316909
2682	0.00378745
2694	0.00285991
2706	0.00340098
2718	0.0030918
2730	0.00239615
2742	0.00231885
2754	0.00247344
2766	0.00185508
2778	0.00200967
2790	0.00208697
2802	0.00170049
2814	0.0030918
2826	0.00626089
2838	0.0111305
2850	0.0186281
2862	0.0186281
2874	0.0149179
2886	0.0123672
2898	0.0158455
2910	0.0232658
2922	0.024889
2934	0.0274397
2946	0.0494688
2958	0.102107
2970	0.101875
2982	0.0539519
2994	0.0447538
3006	0.0519422
3018	0.0470727
3030	0.0439036
3042	0.0436717
3054	0.0292175
3066	0.0180097
3078	0.0156136
3090	0.0152271
3102	0.0193238
3114	0.0181643
3126	0.0157682
3138	0.00649278
3150	0.00533335
3162	0.0030918
3174	0.00386475
3186	0.00293721
3198	0.00347827
3210	0.00247344
3222	0.00262803
3234	0.00193237
3246	0.00216426
3258	0.00247344
3270	0.0016232
3282	0.00208697
3294	0.00247344
3306	0.00224156
3318	0.00131401
3330	0.00255073
3342	0.00208697
3354	0.00247344
3366	0.00247344
3378	0.00285991
3390	0.00185508
3402	0.00347827
3414	0.00239615
3426	0.00216426
3438	0.00285991
3450	0.00247344
3462	0.00448311
3474	0.00571983
3486	0.00850245
3498	0.00749762
3510	0.00548795
3522	0.00185508
3534	0.0016232
3546	0.00239615
3558	0.00216426
3570	0.00131401
3582	0.00247344
3594	0.00324639
3606	0.00278262
3618	0.00409663
3630	0.00386475
3642	0.00371016
3654	0.00425122
3666	0.00533335
3678	0.00440581
3690	0.00649278
3702	0.00672466
3714	0.00680196
3726	0.00803868
3738	0.0078068
3750	0.0092754
3762	0.00973917
3774	0.00958458
3786	0.00873433
3798	0.0116715
3810	0.0122126
3822	0.0112078
3834	0.0108213
3846	0.0111305
3858	0.0106667
3870	0.0126764
3882	0.012058
3894	0.00950728
3906	0.0104348
3918	0.0119807
3930	0.0115943
3942	0.0106667
3954	0
3966	0.000850245
