Infrared Spectrum: 3-Aminopyrazole
Formula: C 3 H 5 N 3
CAS: 1820-80-0
State: gas
Origin: EPA-IR VAPOR PHASE LIBRARY
1/CM	ABSORBANCE
551.7	0.0045
563.274	0.00471
574.848	0.00525
586.421	0.00596
597.995	0.00719
609.569	0.00825
621.143	0.00901
632.717	0.009
644.291	0.00763
655.864	0.00647
667.438	0.00581
679.012	0.0051
690.586	0.00511
702.16	0.00619
713.734	0.009
725.307	0.01162
736.881	0.02107
748.455	0.01435
760.029	0.01254
771.603	0.00881
783.177	0.00586
794.75	0.00453
806.324	0.00406
817.898	0.00416
829.472	0.00473
841.046	0.00575
852.619	0.00704
864.193	0.00843
875.767	0.0087
887.341	0.00798
898.915	0.00702
910.489	0.00587
922.062	0.00571
933.636	0.00484
945.21	0.00455
956.784	0.00422
968.358	0.00415
979.932	0.00396
991.505	0.0037
1003.08	0.00332
1014.65	0.00382
1026.23	0.00531
1037.8	0.00522
1049.37	0.00531
1060.95	0.0043
1072.52	0.00339
1084.1	0.00319
1095.67	0.00343
1107.24	0.0035
1118.82	0.00326
1130.39	0.00293
1141.97	0.00209
1153.54	0.00169
1165.11	0.00142
1176.69	0.00133
1188.26	0.0013
1199.83	0.00113
1211.41	0.00112
1222.98	0.0009261
1234.56	0.00104
1246.13	0.00129
1257.7	0.00169
1269.28	0.00288
1280.85	0.00417
1292.42	0.00428
1304	0.00399
1315.57	0.00198
1327.15	0.00148
1338.72	0.00148
1350.29	0.00154
1361.87	0.00157
1373.44	0.00176
1385.02	0.00203
1396.59	0.00237
1408.16	0.00281
1419.74	0.00322
1431.31	0.00365
1442.88	0.0042
1454.46	0.00622
1466.03	0.01102
1477.61	0.01453
1489.18	0.01567
1500.75	0.01258
1512.33	0.0062
1523.9	0.00663
1535.48	0.01185
1547.05	0.01556
1558.62	0.0161
1570.2	0.01387
1581.77	0.0096
1593.34	0.01062
1604.92	0.013
1616.49	0.01333
1628.07	0.01159
1639.64	0.00699
1651.21	0.00397
1662.79	0.00292
1674.36	0.00242
1685.93	0.00191
1697.51	0.00158
1709.08	0.00146
1720.66	0.00143
1732.23	0.00137
1743.8	0.00134
1755.38	0.00121
1766.95	0.0012
1778.53	0.00117
1790.1	0.00117
1801.67	0.00117
1813.25	0.00113
1824.82	0.00114
1836.39	0.00113
1847.97	0.00117
1859.54	0.00111
1871.12	0.00111
1882.69	0.00108
1894.26	0.00107
1905.84	0.00103
1917.41	0.0009961
1928.99	0.001
1940.56	0.0009669
1952.13	0.0009961
1963.71	0.00103
1975.28	0.0009961
1986.85	0.00102
1998.43	0.00101
2010	0.0009278
2021.58	0.000922
2033.15	0.0008822
2044.72	0.0008746
2056.3	0.0008893
2067.87	0.0008963
2079.44	0.000881
2091.02	0.0008807
2102.59	0.0008564
2114.17	0.0008143
2125.74	0.0007811
2137.31	0.0008037
2148.89	0.0008106
2160.46	0.0008396
2172.04	0.0008865
2183.61	0.0008576
2195.18	0.0007849
2206.76	0.000768
2218.33	0.0007408
2229.9	0.0007638
2241.48	0.000774
2253.05	0.0007619
2264.63	0.0007207
2276.2	0.0007089
2287.77	0.0007274
2299.35	0.0007301
2310.92	0.0007369
2322.5	0.0007206
2334.07	0.0007173
2345.64	0.0007162
2357.22	0.0007137
2368.79	0.0006925
2380.36	0.0007357
2391.94	0.0007258
2403.51	0.0007383
2415.09	0.0007597
2426.66	0.0007571
2438.23	0.0007705
2449.81	0.0007402
2461.38	0.0007646
2472.96	0.0007038
2484.53	0.0006857
2496.1	0.0006978
2507.68	0.0007021
2519.25	0.0007103
2530.82	0.0007613
2542.4	0.0007724
2553.97	0.0007631
2565.55	0.000783
2577.12	0.0008037
2588.69	0.0008182
2600.27	0.0008133
2611.84	0.000815
2623.41	0.0008455
2634.99	0.0008424
2646.56	0.0008156
2658.14	0.0007505
2669.71	0.0007217
2681.28	0.000703
2692.86	0.0007457
2704.43	0.000732
2716.01	0.0007225
2727.58	0.0007655
2739.15	0.0007011
2750.73	0.0006813
2762.3	0.000655
2773.87	0.0006839
2785.45	0.000722
2797.02	0.0007499
2808.6	0.0007266
2820.17	0.0007582
2831.74	0.0007563
2843.32	0.0007801
2854.89	0.0008284
2866.47	0.0008073
2878.04	0.0008467
2889.61	0.0008596
2901.19	0.0008415
2912.76	0.0008586
2924.33	0.0008522
2935.91	0.000896
2947.48	0.000839
2959.06	0.0008268
2970.63	0.0008005
2982.2	0.0008392
2993.78	0.0007508
3005.35	0.0007909
3016.92	0.0008099
3028.5	0.0008894
3040.07	0.0009185
3051.65	0.0008931
3063.22	0.0009701
3074.79	0.00101
3086.37	0.00103
3097.94	0.00113
3109.52	0.00129
3121.09	0.00131
3132.66	0.0013
3144.24	0.00116
3155.81	0.00102
3167.38	0.0008778
3178.96	0.0008449
3190.53	0.0008511
3202.11	0.0007943
3213.68	0.000826
3225.25	0.0008651
3236.83	0.0008482
3248.4	0.0008981
3259.98	0.0009077
3271.55	0.001
3283.12	0.0009327
3294.7	0.0008763
3306.27	0.0008707
3317.84	0.0009308
3329.42	0.0008948
3340.99	0.00106
3352.57	0.00107
3364.14	0.00121
3375.71	0.00159
3387.29	0.00218
3398.86	0.00234
3410.43	0.00224
3422.01	0.00166
3433.58	0.00154
3445.16	0.00183
3456.73	0.00265
3468.3	0.00388
3479.88	0.00503
3491.45	0.00713
3503.03	0.00861
3514.6	0.01262
3526.17	0.01198
3537.75	0.01065
3549.32	0.00679
3560.89	0.00225
3572.47	0.00121
3584.04	0.0008796
3595.62	0.0007784
3607.19	0.0007653
3618.76	0.0007824
3630.34	0.0008611
3641.91	0.0007049
3653.49	0.0007289
3665.06	0.0007106
3676.63	0.000735
3688.21	0.00071
3699.78	0.0007669
3711.35	0.000772
3722.93	0.0006888
3734.5	0.000757
3746.08	0.0006662
3757.65	0.0006028
3769.22	0.0006252
3780.8	0.0007016
3792.37	0.00067
3803.94	0.000626
3815.52	0.0006687
3827.09	0.0006751
3838.67	0.0007112
3850.24	0.0006238
3861.81	0.0006775
3873.39	0.0006477
3884.96	0.0006891
3896.54	0.0007447
3908.11	0.0007966
3919.68	0.0007985
3931.26	0.0008231
3942.83	0.0008382
3954.4	0.0007588
3965.98	0.0007867
3977.55	0.0007427
3989.13	0.0007392
4000.7	0.000716
