Infrared Spectrum: Glycinamide
Formula: C2 H6 N2 O
CAS: 598-41-4
State: SOLID (0.4 mg / 650 mg KBr DISC)
Class: COBLENTZ III
Instrument: PERKIN-ELMER 21 (GRATING)
Instrument parameters: FILTER CHANGE ABOUT 1080 CM^-^1
Sampling: TRANSMISSION
Resolution: 2
Origin: SOUTHERN RESEARCH INSTITUTE
1/CM	TRANSMITTANCE
613.587	0.8554
622.639	0.857
631.69	0.8584
640.742	0.8601
649.794	0.8631
658.845	0.8664
667.897	0.8687
676.948	0.8694
686	0.8691
695.052	0.8673
704.103	0.8651
713.155	0.8624
722.207	0.8585
731.258	0.8543
740.31	0.8495
749.362	0.8438
758.413	0.8363
767.465	0.8285
776.516	0.8202
785.568	0.811
794.62	0.7962
803.671	0.7799
812.723	0.7573
821.775	0.751
830.826	0.7687
839.878	0.7887
848.929	0.8073
857.981	0.8097
867.033	0.8033
876.084	0.7898
885.136	0.7761
894.188	0.7652
903.239	0.7625
912.291	0.7622
921.343	0.7653
930.394	0.7773
939.446	0.7923
948.497	0.8034
957.549	0.8106
966.601	0.8148
975.652	0.8175
984.704	0.8184
993.756	0.8187
1002.81	0.819
1011.86	0.8186
1020.91	0.8229
1029.96	0.826
1039.01	0.8287
1048.07	0.8295
1057.12	0.8215
1066.17	0.806
1075.22	0.8691
1084.27	0.7932
1093.32	0.7931
1102.38	0.7938
1111.43	0.7966
1120.48	0.8011
1129.53	0.8066
1138.58	0.8078
1147.63	0.8011
1156.69	0.7916
1165.74	0.7892
1174.79	0.7963
1183.84	0.8137
1192.89	0.8315
1201.94	0.8333
1210.99	0.8316
1220.05	0.8269
1229.1	0.8198
1238.15	0.8101
1247.2	0.7975
1256.25	0.7796
1265.3	0.7588
1274.36	0.7314
1283.41	0.692
1292.46	0.6229
1301.51	0.5583
1310.56	0.554
1319.61	0.5852
1328.67	0.6487
1337.72	0.6828
1346.77	0.6924
1355.82	0.6915
1364.87	0.6924
1373.92	0.6965
1382.98	0.6915
1392.03	0.6651
1401.08	0.6259
1410.13	0.6119
1419.18	0.6073
1428.23	0.6096
1437.29	0.627
1446.34	0.6415
1455.39	0.6407
1464.44	0.6389
1473.49	0.6396
1482.54	0.6532
1491.6	0.6822
1500.65	0.7006
1509.7	0.7014
1518.75	0.6979
1527.8	0.694
1536.85	0.6711
1545.91	0.6313
1554.96	0.5599
1564.01	0.518
1573.06	0.4558
1582.11	0.4282
1591.16	0.4061
1600.22	0.3839
1609.27	0.3772
1618.32	0.3744
1627.37	0.3725
1636.42	0.3363
1645.47	0.2529
1654.52	0.1536
1663.58	0.1517
1672.63	0.1567
1681.68	0.1996
1690.73	0.2846
1699.78	0.3817
1708.83	0.5483
1717.89	0.7151
1726.94	0.8118
1735.99	0.8443
1745.04	0.8608
1754.09	0.8779
1763.14	0.8895
1772.2	0.8962
1781.25	0.9009
1790.3	0.9047
1799.35	0.9076
1808.4	0.9097
1817.45	0.9124
1826.51	0.9139
1835.56	0.916
1844.61	0.919
1853.66	0.9177
1862.71	0.9173
1871.76	0.9172
1880.82	0.9169
1889.87	0.9164
1898.92	0.9157
1907.97	0.9148
1917.02	0.9137
1926.07	0.9126
1935.13	0.9114
1944.18	0.9102
1953.23	0.9089
1962.28	0.9077
1971.33	0.9061
1980.38	0.9046
1989.44	0.903
1998.49	0.9013
2007.54	0.8994
2016.59	0.8975
2025.64	0.8958
2034.69	0.8942
2043.75	0.8924
2052.8	0.8905
2061.85	0.8896
2070.9	0.8892
2079.95	0.8891
2089	0.8893
2098.06	0.8893
2107.11	0.8894
2116.16	0.8885
2125.21	0.8874
2134.26	0.8866
2143.31	0.887
2152.36	0.8873
2161.42	0.8879
2170.47	0.888
2179.52	0.8873
2188.57	0.8866
2197.62	0.8852
2206.67	0.8837
2215.73	0.8817
2224.78	0.8798
2233.83	0.8783
2242.88	0.8775
2251.93	0.8758
2260.98	0.8739
2270.04	0.872
2279.09	0.8696
2288.14	0.8663
2297.19	0.8612
2306.24	0.854
2315.29	0.8491
2324.35	0.8469
2333.4	0.8469
2342.45	0.8495
2351.5	0.8506
2360.55	0.8514
2369.6	0.8525
2378.66	0.8532
2387.71	0.8507
2396.76	0.8478
2405.81	0.8445
2414.86	0.8413
2423.91	0.8381
2432.97	0.8376
2442.02	0.8368
2451.07	0.8353
2460.12	0.8335
2469.17	0.8317
2478.22	0.83
2487.28	0.8282
2496.33	0.8264
2505.38	0.8246
2514.43	0.8225
2523.48	0.8201
2532.53	0.8175
2541.59	0.8148
2550.64	0.812
2559.69	0.8088
2568.74	0.8056
2577.79	0.803
2586.84	0.7988
2595.89	0.7965
2604.95	0.7957
2614	0.7958
2623.05	0.7949
2632.1	0.7936
2641.15	0.7919
2650.2	0.7902
2659.26	0.7874
2668.31	0.7842
2677.36	0.7803
2686.41	0.7757
2695.46	0.7723
2704.51	0.7688
2713.57	0.765
2722.62	0.761
2731.67	0.7572
2740.72	0.7532
2749.77	0.7493
2758.82	0.7453
2767.88	0.7413
2776.93	0.7373
2785.98	0.7333
2795.03	0.7295
2804.08	0.7257
2813.13	0.7217
2822.19	0.7167
2831.24	0.7118
2840.29	0.7067
2849.34	0.7016
2858.39	0.6971
2867.44	0.6922
2876.5	0.6862
2885.55	0.6798
2894.6	0.6725
2903.65	0.6647
2912.7	0.6597
2921.75	0.6566
2930.81	0.6547
2939.86	0.6532
2948.91	0.6508
2957.96	0.6475
2967.01	0.6445
2976.06	0.641
2985.12	0.6335
2994.17	0.6259
3003.22	0.6182
3012.27	0.6127
3021.32	0.6075
3030.37	0.6025
3039.42	0.598
3048.48	0.593
3057.53	0.5875
3066.58	0.5811
3075.63	0.5701
3084.68	0.5564
3093.73	0.5398
3102.79	0.5236
3111.84	0.5072
3120.89	0.4859
3129.94	0.464
3138.99	0.4373
3148.04	0.4269
3157.1	0.4277
3166.15	0.4282
3175.2	0.428
3184.25	0.428
3193.3	0.4284
3202.35	0.4289
3211.41	0.4211
3220.46	0.4075
3229.51	0.3937
3238.56	0.3756
3247.61	0.3596
3256.66	0.3487
3265.72	0.3398
3274.77	0.3333
3283.82	0.3269
3292.87	0.3206
3301.92	0.3142
3310.97	0.3087
3320.03	0.3059
3329.08	0.3055
3338.13	0.3064
3347.18	0.3068
3356.23	0.3071
3365.28	0.3084
3374.34	0.3138
3383.39	0.3303
3392.44	0.3468
3401.49	0.3621
3410.54	0.3772
3419.59	0.3944
3428.65	0.4173
3437.7	0.4564
3446.75	0.5004
3455.8	0.5388
3464.85	0.567
3473.9	0.5865
3482.96	0.6002
3492.01	0.6089
3501.06	0.6249
3510.11	0.6458
3519.16	0.6627
3528.21	0.6769
3537.26	0.6933
3546.32	0.7078
3555.37	0.7229
3564.42	0.7391
3573.47	0.7532
3582.52	0.7635
3591.57	0.7723
3600.63	0.7816
3609.68	0.7904
3618.73	0.7985
3627.78	0.8051
3636.83	0.8112
3645.88	0.8154
3654.94	0.8181
3663.99	0.8201
3673.04	0.8216
3682.09	0.8231
3691.14	0.8308
3700.19	0.8329
3709.25	0.8329
3718.3	0.8332
3727.35	0.8325
3736.4	0.8319
3745.45	0.8329
3754.5	0.8387
3763.56	0.839
3772.61	0.837
3781.66	0.8341
3790.71	0.8312
3799.76	0.8288
3808.81	0.827
3817.87	0.8262
3826.92	0.8263
3835.97	0.826
3845.02	0.8256
3854.07	0.8254
3863.12	0.8252
3872.18	0.8264
3881.23	0.8279
3890.28	0.8293
3899.33	0.8303
3908.38	0.8313
3917.43	0.8323
3926.49	0.8331
3935.54	0.8342
3944.59	0.8352
3953.64	0.8361
3962.69	0.8369
3971.74	0.8375
3980.79	0.8389
3989.85	0.8403
3998.9	0.8412
4007.95	0.8419
