Infrared Spectrum: 1-Cyclopropyl ethanol
Formula: C 5 H 10 O
CAS: 2566-44-1
State: gas
Instrument: HP-GC/MS/IRD
Origin: NIST Mass Spectrometry Data Center
1/CM	ABSORBANCE
550	0.000394
562	0.000398
574	0.000238
586	0.000325
598	0.000183
610	0.000186
622	0.000293
634	0.000133
646	0.000171
658	0.000104
670	5.6e-05
682	9.1e-05
694	0.000147
706	0.000196
718	0.000253
730	0.000277
742	0.000301
754	0.000246
766	0.000313
778	0.000202
790	0.00038
802	0.000836
814	0.001429
826	0.001433
838	0.00114
850	0.000886
862	0.001209
874	0.001794
886	0.00227
898	0.002689
910	0.00299
922	0.004292
934	0.005755
946	0.005831
958	0.004245
970	0.002795
982	0.002699
994	0.003351
1006	0.004922
1018	0.006646
1030	0.007374
1042	0.006839
1054	0.006694
1066	0.006602
1078	0.007211
1090	0.007838
1102	0.007472
1114	0.005939
1126	0.004163
1138	0.003343
1150	0.003147
1162	0.002881
1174	0.002534
1186	0.002389
1198	0.002349
1210	0.002407
1222	0.002831
1234	0.003902
1246	0.00486
1258	0.00476
1270	0.003628
1282	0.002675
1294	0.002458
1306	0.002565
1318	0.002582
1330	0.002527
1342	0.002545
1354	0.00281
1366	0.003751
1378	0.004779
1390	0.005373
1402	0.004493
1414	0.00323
1426	0.002464
1438	0.002182
1450	0.002228
1462	0.001735
1474	0.00116
1486	0.000666
1498	0.000381
1510	0.000253
1522	0.000183
1534	0.000187
1546	0.000143
1558	0.000108
1570	0.000108
1582	0.000122
1594	0.000112
1606	0.000108
1618	0.000104
1630	0.000103
1642	9.7e-05
1654	7.4e-05
1666	6.1e-05
1678	8.5e-05
1690	4.6e-05
1702	5e-06
1714	6e-06
1726	1.8e-05
1738	4.1e-05
1750	6.1e-05
1762	9.2e-05
1774	0.000102
1786	0.000118
1798	0.000124
1810	0.000153
1822	0.00016
1834	0.000157
1846	0.00015
1858	0.000137
1870	0.000137
1882	0.00016
1894	0.000194
1906	0.000243
1918	0.000281
1930	0.000249
1942	0.000194
1954	0.000154
1966	0.000109
1978	9.5e-05
1990	7.6e-05
2002	4.5e-05
2014	4.3e-05
2026	9.9e-05
2038	0.000186
2050	0.000239
2062	0.000246
2074	0.000238
2086	0.00019
2098	0.00013
2110	9.6e-05
2122	7.1e-05
2134	8.3e-05
2146	3.6e-05
2158	5.9e-05
2170	6.4e-05
2182	5.6e-05
2194	5.5e-05
2206	5.3e-05
2218	6.1e-05
2230	6.3e-05
2242	5.6e-05
2254	8.1e-05
2266	7.2e-05
2278	3.9e-05
2290	1.9e-05
2302	3.5e-05
2314	3e-06
2326	2.9e-05
2338	2.6e-05
2350	2.8e-05
2362	4.1e-05
2374	3.2e-05
2386	5.7e-05
2398	5.2e-05
2410	5e-05
2422	4.3e-05
2434	8.3e-05
2446	6.1e-05
2458	9.7e-05
2470	0.000112
2482	0.000112
2494	9.6e-05
2506	3.7e-05
2518	5.4e-05
2530	2.8e-05
2542	2.8e-05
2554	2.7e-05
2566	7.3e-05
2578	0.000111
2590	0.000162
2602	0.000166
2614	0.000196
2626	0.000211
2638	0.000185
2650	0.000194
2662	0.00024
2674	0.000204
2686	0.000188
2698	0.000158
2710	0.000162
2722	0.000152
2734	0.000226
2746	0.000282
2758	0.000331
2770	0.000368
2782	0.000405
2794	0.000542
2806	0.000659
2818	0.00079
2830	0.001103
2842	0.001719
2854	0.002776
2866	0.004173
2878	0.005196
2890	0.005426
2902	0.004685
2914	0.004038
2926	0.003776
2938	0.003737
2950	0.004303
2962	0.006273
2974	0.009556
2986	0.009744
2998	0.009027
3010	0.008231
3022	0.006824
3034	0.004165
3046	0.001959
3058	0.001531
3070	0.002778
3082	0.004345
3094	0.003962
3106	0.002467
3118	0.000857
3130	0.000336
3142	0.000184
3154	0.000143
3166	0.000148
3178	0.00014
3190	0.000203
3202	0.000192
3214	0.000109
3226	7.5e-05
3238	5.3e-05
3250	2.1e-05
3262	1e-05
3274	3.1e-05
3286	2.5e-05
3298	3.9e-05
3310	4.6e-05
3322	0.00012
3334	0.000102
3346	0.000139
3358	0.000137
3370	0.000129
3382	0.000166
3394	0.000146
3406	0.000137
3418	0.000114
3430	0.000161
3442	0.000133
3454	0.000171
3466	0.00016
3478	0.000119
3490	0.000192
3502	0.000107
3514	0.000139
3526	0.000145
3538	0.000155
3550	0.000135
3562	0.000135
3574	0.000192
3586	0.000215
3598	0.000224
3610	0.000402
3622	0.00084
3634	0.001654
3646	0.001996
3658	0.002055
3670	0.001296
3682	0.000657
3694	0.000286
3706	0.000232
3718	0.000122
3730	0.000204
3742	0.000183
3754	0.000152
3766	0.000175
3778	0.000224
3790	0.000213
3802	0.000182
3814	0.000193
3826	0.000333
3838	0.000235
