Infrared Spectrum: Pyrrolidine-2-thione
Formula: C 4 H 7 N S
CAS: 2295-35-4
State: gas
Origin: EPA-IR VAPOR PHASE LIBRARY
1/CM	ABSORBANCE
549.8	0.00441
559.445	0.00776
569.09	0.01002
578.734	0.00846
588.379	0.00824
598.024	0.00623
607.669	0.00347
617.313	0.00241
626.958	0.0031
636.603	0.0020415
646.248	0.001993
655.893	0.0018529
665.537	0.0018719
675.182	0.0015653
684.827	0.0016639
694.472	0.0018641
704.116	0.0022
713.761	0.00234
723.406	0.0021095
733.051	0.0018443
742.695	0.0020994
752.34	0.0023
761.985	0.0019325
771.63	0.0013219
781.275	0.0010905
790.919	0.0013821
800.564	0.0017334
810.209	0.0013825
819.854	0.00272
829.498	0.0012924
839.143	0.0017052
848.788	0.001377
858.433	0.0020787
868.078	0.0020645
877.722	0.0010331
887.367	0.0015673
897.012	0.0013338
906.657	0.0020165
916.301	0.0020114
925.946	0.00239
935.591	0.001637
945.236	0.00231
954.88	0.00361
964.525	0.00454
974.17	0.00455
983.815	0.00391
993.46	0.00283
1003.1	0.0019199
1012.75	0.00276
1022.39	0.00287
1032.04	0.00328
1041.68	0.00408
1051.33	0.00315
1060.97	0.00388
1070.62	0.00388
1080.26	0.00305
1089.91	0.00471
1099.55	0.00681
1109.2	0.01322
1118.84	0.01765
1128.49	0.01646
1138.13	0.01086
1147.78	0.00736
1157.42	0.00547
1167.07	0.00426
1176.71	0.00285
1186.36	0.00348
1196	0.0028
1205.64	0.00568
1215.29	0.00809
1224.93	0.00831
1234.58	0.01014
1244.22	0.01482
1253.87	0.02804
1263.51	0.03674
1273.16	0.03772
1282.8	0.02489
1292.45	0.01585
1302.09	0.01505
1311.74	0.01265
1321.38	0.01015
1331.03	0.0083
1340.67	0.00797
1350.32	0.00756
1359.96	0.00394
1369.61	0.00264
1379.25	0.00231
1388.9	0.00241
1398.54	0.00252
1408.18	0.00323
1417.83	0.0041
1427.47	0.0056
1437.12	0.00951
1446.76	0.02056
1456.41	0.03411
1466.05	0.05454
1475.7	0.05261
1485.34	0.05276
1494.99	0.03707
1504.63	0.02961
1514.28	0.01919
1523.92	0.00635
1533.57	0.00383
1543.21	0.00234
1552.86	0.00262
1562.5	0.0019193
1572.15	0.0018301
1581.79	0.0014308
1591.44	0.00228
1601.08	0.0019769
1610.73	0.0020241
1620.37	0.00231
1630.01	0.0019953
1639.66	0.0016062
1649.3	0.0014827
1658.95	0.0017836
1668.59	0.0015376
1678.24	0.0019256
1687.88	0.0016258
1697.53	0.001176
1707.17	0.0014281
1716.82	0.0014408
1726.46	0.001801
1736.11	0.0013001
1745.75	0.001467
1755.4	0.0015754
1765.04	0.001583
1774.69	0.0015366
1784.33	0.0014567
1793.98	0.0013563
1803.62	0.0012895
1813.27	0.0012908
1822.91	0.0012404
1832.55	0.0013166
1842.2	0.0014116
1851.84	0.0013787
1861.49	0.0012417
1871.13	0.0014172
1880.78	0.0013462
1890.42	0.0013152
1900.07	0.0013865
1909.71	0.0014737
1919.36	0.0011784
1929	0.0013155
1938.65	0.0015937
1948.29	0.0012731
1957.94	0.0014065
1967.58	0.0013578
1977.23	0.0014799
1986.87	0.0016832
1996.52	0.0015911
2006.16	0.0012683
2015.81	0.0013654
2025.45	0.0017857
2035.1	0.0014702
2044.74	0.0014666
2054.38	0.0013331
2064.03	0.0016677
2073.67	0.0014597
2083.32	0.0013561
2092.96	0.00121834
2102.61	0.0013188
2112.25	0.001367
2121.9	0.0014397
2131.54	0.0016235
2141.19	0.001618
2150.83	0.0014354
2160.48	0.0012367
2170.12	0.001401
2179.77	0.0013719
2189.41	0.0015555
2199.06	0.0014651
2208.7	0.0016084
2218.35	0.0013128
2227.99	0.0014971
2237.64	0.0014586
2247.28	0.001477
2256.92	0.0015321
2266.57	0.0015614
2276.21	0.0016345
2285.86	0.0016183
2295.5	0.0014815
2305.15	0.0016207
2314.79	0.0015688
2324.44	0.0014197
2334.08	0.0012769
2343.73	0.0015602
2353.37	0.0019117
2363.02	0.0015296
2372.66	0.0016617
2382.31	0.0016076
2391.95	0.001844
2401.6	0.0014022
2411.24	0.0013079
2420.89	0.0014737
2430.53	0.0014686
2440.18	0.001606
2449.82	0.0016111
2459.47	0.0014489
2469.11	0.0017256
2478.75	0.0014801
2488.4	0.0013008
2498.04	0.0018337
2507.69	0.0014604
2517.33	0.0016412
2526.98	0.0013268
2536.62	0.0015943
2546.27	0.0015019
2555.91	0.00167
2565.56	0.0015491
2575.2	0.0016614
2584.85	0.0012507
2594.49	0.0015505
2604.14	0.001752
2613.78	0.0015392
2623.43	0.0015306
2633.07	0.0014005
2642.72	0.0013542
2652.36	0.0013045
2662.01	0.0014832
2671.65	0.0013544
2681.29	0.001602
2690.94	0.0018182
2700.58	0.0015028
2710.23	0.0016688
2719.87	0.0016085
2729.52	0.00238
2739.16	0.0017394
2748.81	0.0019128
2758.45	0.001643
2768.1	0.0020853
2777.74	0.0017804
2787.39	0.00251
2797.03	0.00227
2806.68	0.00241
2816.32	0.00255
2825.97	0.00291
2835.61	0.003
2845.26	0.00262
2854.9	0.00363
2864.55	0.0057
2874.19	0.0104
2883.84	0.01337
2893.48	0.01293
2903.12	0.00928
2912.77	0.00677
2922.41	0.007
2932.06	0.00751
2941.7	0.00816
2951.35	0.01075
2960.99	0.01178
2970.64	0.01253
2980.28	0.01223
2989.93	0.01084
2999.57	0.00804
3009.22	0.00556
3018.86	0.00358
3028.51	0.00277
3038.15	0.0018779
3047.8	0.0018632
3057.44	0.0018049
3067.09	0.0016786
3076.73	0.0013237
3086.38	0.001943
3096.02	0.0015795
3105.67	0.0017569
3115.31	0.0014382
3124.95	0.0018604
3134.6	0.0017598
3144.24	0.0012986
3153.89	0.0013875
3163.53	0.0017527
3173.18	0.0013345
3182.82	0.001649
3192.47	0.0020801
3202.11	0.0012272
3211.76	0.0012189
3221.4	0.00064
3231.05	0.0015529
3240.69	0.0013676
3250.34	0.0015434
3259.98	0.0016069
3269.63	0.0014724
3279.27	0.0010597
3288.92	0.0013406
3298.56	0.0014618
3308.21	0.0015
3317.85	0.0011318
3327.49	0.0016072
3337.14	0.0014244
3346.78	0.0016282
3356.43	0.0012417
3366.07	0.001408
3375.72	0.0010914
3385.36	0.0012773
3395.01	0.0017484
3404.65	0.0020494
3414.3	0.0021161
3423.94	0.00358
3433.59	0.00615
3443.23	0.00863
3452.88	0.00856
3462.52	0.00797
3472.17	0.00576
3481.81	0.00364
3491.46	0.0012437
3501.1	0.0016501
3510.75	0.0012705
3520.39	0.0017978
3530.04	0.00071
3539.68	0.0016052
3549.32	0.0012683
3558.97	0.0015433
3568.61	0.0016374
3578.26	0.0010915
3587.9	0.0016225
3597.55	0.000948
3607.19	0.00112184
3616.84	0.0012335
3626.48	0.0015836
3636.13	0.0012452
3645.77	0.0014556
3655.42	0.0013259
3665.06	0.000856
3674.71	0.0017133
3684.35	0.0012324
3694	0.0013822
3703.64	0.0020907
3713.29	0.000937
3722.93	0.0018775
3732.58	0.001762
3742.22	0.0011075
3751.86	0.000737
3761.51	0.0015633
3771.15	0.0012419
3780.8	0.0013976
3790.44	0.000854
3800.09	0.0012901
3809.73	0.0011386
3819.38	0.0013792
3829.02	0.00114515
3838.67	0.0014263
3848.31	0.0015717
3857.96	0.0019435
3867.6	0.00111038
3877.25	0.0014378
3886.89	0.0018386
3896.54	0.00117665
3906.18	0.0014122
3915.83	0.0010455
3925.47	0.0010939
3935.12	0.0018256
3944.76	0.0016718
3954.41	0.0013951
3964.05	0.000692
3973.69	0.0014845
3983.34	0.0015705
3992.98	0.0013535
