Infrared Spectrum: DIKETENE
Formula: C4 H4 O2
CAS: 674-82-8
State: SOLUTION (CS2 FOR 3800-400 CM^-^1)
Class: COBLENTZ
Instrument: BECKMAN IR-9 (GRATING)
Instrument parameters: ORDER CHANGES: 670, 1200, 2000 CM^-^1
Sampling: TRANSMISSION
Path length: 0.10 CM
Resolution: 2
Origin: DOW CHEMICAL COMPANY
1/CM	TRANSMITTANCE
381	0.26
390	0.2379
399	0.1887
408	0.1201
417	0.1048
426	0.1267
435	0.1846
444	0.2333
453	0.301
462	0.3608
471	0.4032
480	0.4526
489	0.5004
498	0.5312
507	0.541
516	0.5804
525	0.5883
534	0.6249
543	0.6347
552	0.6424
561	0.6498
570	0.6542
579	0.6532
588	0.6455
597	0.6355
606	0.624
615	0.6108
624	0.5901
633	0.5467
642	0.4536
651	0.3664
660	0.3959
669	0.4937
678	0.5098
687	0.5319
696	0.5443
705	0.5544
714	0.5677
723	0.5909
732	0.6212
741	0.6519
750	0.6765
759	0.6849
768	0.6883
777	0.6682
786	0.6257
795	0.5585
804	0.2898
813	0.591
822	0.5925
831	0.3366
840	0.1963
849	0.1184
858	0.0749
867	0.0387
876	0.0245
885	0.3437
894	0.5496
903	0.6912
912	0.7439
921	0.7761
930	0.7974
939	0.8042
948	0.7972
957	0.7746
966	0.7947
975	0.7758
984	0.716
993	0.5531
1002	0.1472
1011	0.3166
1020	0.5441
1029	0.6896
1038	0.736
1047	0.7438
1056	0.7728
1065	0.7846
1074	0.7893
1083	0.7884
1092	0.7651
1101	0.7548
1110	0.7794
1119	0.7976
1128	0.7856
1137	0.831
1146	0.8324
1155	0.8249
1164	0.8121
1173	0.7865
1182	0.7887
1191	0.8039
1200	0.7999
1209	0.8045
1218	0.7446
1227	0.6062
1236	0.1886
1245	0.6764
1254	0.7801
1263	0.7875
1272	0.8182
1281	0.8268
1290	0.8268
1299	0.8227
1308	0.813
1317	0.7981
1326	0.7771
1335	0.7498
1344	0.6926
1353	0.6096
1362	0.4664
1371	0.3766
1380	0.3
1389	0.1128
1398	0.0386
1407	0.0039
1416	0.0039
1425	0.0038
1434	0.0038
1443	0.0037
1452	0.0037
1461	0.0036
1470	0.0036
1479	0.0035
1488	0.0035
1497	0.0034
1506	0.0034
1515	0.0033
1524	0.0033
1533	0.0032
1542	0.0032
1551	0.0031
1560	0.0031
1569	0.003
1578	0.003
1587	0.0029
1596	0.0029
1605	0.0028
1614	0.0157
1623	0.0691
1632	0.1933
1641	0.3197
1650	0.3957
1659	0.4064
1668	0.2095
1677	0.3543
1686	0.53
1695	0.5144
1704	0.0657
1713	0.5103
1722	0.67
1731	0.6819
1740	0.5388
1749	0.3205
1758	0.7011
1767	0.7797
1776	0.8183
1785	0.8085
1794	0.8524
1803	0.8556
1812	0.8547
1821	0.8477
1830	0.8176
1839	0.7803
1848	0.5431
1857	0.2619
1866	0.368
1875	0.5367
1884	0.3105
1893	0.0345
1902	0.2993
1911	0.5391
1920	0.6554
1929	0.7165
1938	0.7444
1947	0.7597
1956	0.7517
1965	0.7621
1974	0.7768
1983	0.765
1992	0.7608
2001	0.6989
2010	0.7174
2019	0.7564
2028	0.756
2037	0.7508
2046	0.7361
2055	0.7124
2064	0.6804
2073	0.5505
2082	0.3512
2091	0.1872
2100	0.0232
2109	0.0038
2118	0.0037
2127	0.0036
2136	0.0036
2145	0.0035
2154	0.0035
2163	0.0034
2172	0.0033
2181	0.0033
2190	0.0032
2199	0.0158
2208	0.0814
2217	0.2932
2226	0.3598
2235	0.4148
2244	0.4383
2253	0.4034
2262	0.2277
2271	0.0901
2280	0.0175
2289	0.0066
2298	0.0072
2307	0.0145
2316	0.0321
2325	0.0925
2334	0.261
2343	0.371
2352	0.5266
2361	0.584
2370	0.6332
2379	0.6715
2388	0.6891
2397	0.6975
2406	0.7056
2415	0.7111
2424	0.7145
2433	0.7168
2442	0.7183
2451	0.718
2460	0.7175
2469	0.7162
2478	0.7151
2487	0.7141
2496	0.7128
2505	0.7117
2514	0.7106
2523	0.7092
2532	0.7078
2541	0.7064
2550	0.7051
2559	0.7037
2568	0.7021
2577	0.7005
2586	0.699
2595	0.6974
2604	0.696
2613	0.6947
2622	0.6934
2631	0.6918
2640	0.6901
2649	0.6884
2658	0.6867
2667	0.6847
2676	0.6826
2685	0.6807
2694	0.6787
2703	0.6757
2712	0.6718
2721	0.6646
2730	0.6551
2739	0.6426
2748	0.6195
2757	0.5826
2766	0.5499
2775	0.4301
2784	0.4142
2793	0.353
2802	0.2913
2811	0.4073
2820	0.4878
2829	0.5248
2838	0.557
2847	0.5607
2856	0.5649
2865	0.6001
2874	0.6037
2883	0.601
2892	0.5888
2901	0.5622
2910	0.5168
2919	0.4347
2928	0.4451
2937	0.5193
2946	0.5467
2955	0.5522
2964	0.5646
2973	0.5877
2982	0.603
2991	0.6039
3000	0.6034
3009	0.606
3018	0.6083
3027	0.6081
3036	0.6078
3045	0.6075
3054	0.6064
3063	0.6053
3072	0.6039
3081	0.6021
3090	0.6003
3099	0.5986
3108	0.597
3117	0.5981
3126	0.6001
3135	0.5993
3144	0.5985
3153	0.5978
3162	0.597
3171	0.5956
3180	0.5943
3189	0.5928
3198	0.5915
3207	0.5903
3216	0.589
3225	0.5878
3234	0.5868
3243	0.586
3252	0.5855
3261	0.5848
3270	0.5842
3279	0.5835
3288	0.5829
3297	0.582
3306	0.581
3315	0.5799
3324	0.5789
3333	0.5778
3342	0.5768
3351	0.5758
3360	0.5749
3369	0.574
3378	0.5731
3387	0.5722
3396	0.5712
3405	0.5701
3414	0.5691
3423	0.568
3432	0.5668
3441	0.565
3450	0.5646
3459	0.5659
3468	0.567
3477	0.5674
3486	0.5674
3495	0.5676
3504	0.5677
3513	0.5671
3522	0.5664
3531	0.5656
3540	0.5652
3549	0.5649
3558	0.5646
3567	0.5643
3576	0.564
3585	0.5639
3594	0.5638
3603	0.5637
3612	0.5636
3621	0.5635
3630	0.5635
3639	0.5631
3648	0.5621
3657	0.561
3666	0.56
3675	0.559
3684	0.5581
3693	0.5571
3702	0.5562
3711	0.5552
3720	0.5543
3729	0.5531
3738	0.5516
3747	0.5501
3756	0.5489
3765	0.549
3774	0.5488
3783	0.548
3792	0.5471
