Infrared Spectrum: 3-Methylcyclopentene
Formula: C 6 H 10
CAS: 1120-62-3
State: gas
Instrument: HP-GC/MS/IRD
Origin: NIST Mass Spectrometry Data Center
1/CM	ABSORBANCE
550	0.0005324
562	0.0001012
574	0.0003124
586	0.00044
598	0.0003608
610	0.0001716
622	0.00022
634	0.0002376
646	0.0005676
658	0.000506
670	0.0011352
682	0.0029084
694	0.0057904
706	0.0095876
718	0.0126016
730	0.0083512
742	0.0056188
754	0.0027456
766	0.00132
778	0.0006776
790	0.0004576
802	0.0004312
814	0.0006072
826	0.0006644
838	0.0006556
850	0.00055
862	0.0005412
874	0.000814
886	0.0011968
898	0.0012848
910	0.0010428
922	0.0006908
934	0.0006864
946	0.0006644
958	0.0006116
970	0.0006908
982	0.0006864
994	0.0005016
1006	0.000308
1018	0.0002112
1030	0.0004752
1042	0.0008492
1054	0.0015224
1066	0.0021472
1078	0.0029876
1090	0.002398
1102	0.0014916
1114	0.0006996
1126	0.0002728
1138	0.0001804
1150	0.000154
1162	0.000176
1174	0.0002992
1186	0.0003036
1198	0.0002948
1210	0.00033
1222	0.0003564
1234	0.00033
1246	0.0004092
1258	0.0005412
1270	0.000858
1282	0.0009856
1294	0.0010736
1306	0.000968
1318	0.0008844
1330	0.0011616
1342	0.0021428
1354	0.0027016
1366	0.0026488
1378	0.0021164
1390	0.0012408
1402	0.0009108
1414	0.0008228
1426	0.0014344
1438	0.0024816
1450	0.0036168
1462	0.0034672
1474	0.0026356
1486	0.001474
1498	0.0007084
1510	0.0004048
1522	0.0002816
1534	0.00022
1546	0.0001848
1558	0.0001716
1570	0.0001804
1582	0.0003564
1594	0.0005632
1606	0.0007744
1618	0.0010296
1630	0.0012452
1642	0.0012716
1654	0.001166
1666	0.000902
1678	0.0005544
1690	0.0004268
1702	0.000264
1714	0.0001628
1726	0.0001276
1738	0.0001364
1750	9.24e-05
1762	0.000132
1774	0.000132
1786	0.0001188
1798	0.000132
1810	0.000132
1822	0.00011
1834	9.68e-05
1846	0.0001364
1858	0.0001892
1870	0.0001848
1882	0.000154
1894	0.0001232
1906	7.92e-05
1918	9.24e-05
1930	7.04e-05
1942	8.8e-05
1954	9.24e-05
1966	8.8e-05
1978	0.0001188
1990	0.0001584
2002	0.0001584
2014	0.0001628
2026	0.0001408
2038	7.48e-05
2050	7.48e-05
2062	6.6e-05
2074	5.28e-05
2086	9.24e-05
2098	7.04e-05
2110	0.0001232
2122	0.0001232
2134	0.0001276
2146	0.0001628
2158	0.0001408
2170	0.0001584
2182	0.0001496
2194	0.0001496
2206	0.0001232
2218	0.0001452
2230	0.0001716
2242	0.0001276
2254	0.00011
2266	9.24e-05
2278	7.92e-05
2290	0.0001012
2302	0.0001232
2314	0.0001452
2326	0.000132
2338	0.0001452
2350	0.000154
2362	0.0001496
2374	9.68e-05
2386	7.04e-05
2398	0.0001188
2410	5.28e-05
2422	8.8e-05
2434	0.0001056
2446	8.8e-05
2458	8.36e-05
2470	9.68e-05
2482	5.72e-05
2494	6.6e-05
2506	7.04e-05
2518	8.36e-05
2530	0.0001716
2542	0.0002156
2554	0.0002464
2566	0.0002728
2578	0.0002948
2590	0.000286
2602	0.0002816
2614	0.0003036
2626	0.0002728
2638	0.0002332
2650	0.0001804
2662	0.0002288
2674	0.0002112
2686	0.0001936
2698	0.0002508
2710	0.0003916
2722	0.000528
2734	0.000594
2746	0.0006468
2758	0.0006996
2770	0.0007568
2782	0.0009416
2794	0.0011748
2806	0.0016148
2818	0.0023584
2830	0.0042944
2842	0.0090772
2854	0.0162052
2866	0.021318
2878	0.0226688
2890	0.019602
2902	0.0183568
2914	0.0216656
2926	0.0265804
2938	0.0344652
2950	0.0428164
2962	0.04312
2974	0.0292204
2986	0.0138028
2998	0.0051348
3010	0.0029524
3022	0.0030888
3034	0.0054736
3046	0.0095568
3058	0.0112376
3070	0.0098956
3082	0.0052756
3094	0.0017292
3106	0.0007568
3118	0.0005368
3130	0.0004576
3142	0.0004488
3154	0.0004796
3166	0.0005324
3178	0.0006028
3190	0.0006424
3202	0.0005676
3214	0.00055
3226	0.0003828
3238	0.0003212
3250	0.0002288
3262	0.0001672
3274	0.0001496
3286	0.0001672
3298	0.0001804
3310	0.0001848
3322	0.0001628
3334	0.0001276
3346	3.96e-05
3358	6.16e-05
3370	7.92e-05
3382	0.0001056
3394	9.68e-05
3406	0.0001496
3418	0.0001056
3430	0.0001496
3442	0.0001232
3454	0.0001584
3466	9.68e-05
3478	7.04e-05
3490	9.24e-05
3502	0.0001496
3514	0.000132
3526	0.0001672
3538	0.0001672
3550	0.000132
3562	0.000154
3574	0.0001628
3586	0.0001628
3598	0.0001804
3610	0.0001584
3622	0.0001804
3634	0.0001936
3646	0.0002024
3658	0.0002024
3670	0.0001892
3682	0.0001716
3694	0.0001804
3706	0.0002156
3718	0.0002376
3730	0.000154
3742	0.0002552
3754	0.000242
3766	0.000286
3778	0.0002552
3790	0.0004136
3802	0.0003784
3814	0.0004092
3826	0.0004312
3838	0.0003256
