Infrared Spectrum: Ethane, 1-bromo-2-ethoxy-
Formula: C 4 H 9 Br O
CAS: 592-55-2
State: gas
Origin: Sadtler Research Labs Under US-EPA Contract
1/CM	ABSORBANCE
450	0
462	0.0253869
474	0.0195103
486	0.0202155
498	0.0111655
510	0.0139863
522	0.020333
534	0.0152792
546	0.0231538
558	0.0332616
570	0.0533595
582	0.0787464
594	0.0692263
606	0.0364349
618	0.0232713
630	0.0246817
642	0.0300882
654	0.0684036
666	0.158433
678	0.164427
690	0.0506563
702	0.0284427
714	0.0191577
726	0.0141038
738	0.0130461
750	0.0133986
762	0.0173947
774	0.0205681
786	0.0244467
798	0.0307934
810	0.0249168
822	0.023859
834	0.0243291
846	0.0302057
858	0.0427816
870	0.053242
882	0.0635848
894	0.0593537
906	0.0510089
918	0.0436044
930	0.0376102
942	0.0372576
954	0.0453674
966	0.0444271
978	0.0528894
990	0.0815672
1002	0.115299
1014	0.137983
1026	0.140921
1038	0.16478
1050	0.195338
1062	0.221313
1074	0.273144
1086	0.35718
1098	0.653831
1110	1.04792
1122	1.15969
1134	1.12196
1146	0.789345
1158	0.432753
1170	0.30476
1182	0.245877
1194	0.219197
1206	0.195103
1218	0.188756
1230	0.149618
1242	0.126347
1254	0.109892
1266	0.132576
1278	0.196514
1290	0.201567
1302	0.131636
1314	0.0720471
1326	0.0581783
1338	0.0704017
1350	0.163605
1362	0.208737
1374	0.195338
1386	0.226014
1398	0.142919
1410	0.129168
1422	0.120823
1434	0.124701
1446	0.125877
1458	0.116357
1470	0.0915574
1482	0.0745153
1494	0.0545348
1506	0.033144
1518	0.0211558
1530	0.0152792
1542	0.0149266
1554	0.0114006
1566	0.0104603
1578	0.0102253
1590	0.00904996
1602	0.0091675
1614	0.00999022
1626	0.00869737
1638	0.0104603
1650	0.0101078
1662	0.0101078
1674	0.0105779
1686	0.0119883
1698	0.0131636
1710	0.0163369
1722	0.0211558
1734	0.0250343
1746	0.0300882
1758	0.0346719
1770	0.0300882
1782	0.0202155
1794	0.0153967
1806	0.0129285
1818	0.0116357
1830	0.00999022
1842	0.00963762
1854	0.00928503
1866	0.0101078
1878	0.0105779
1890	0.0117532
1902	0.0138688
1914	0.0163369
1926	0.0175123
1938	0.0184525
1950	0.0193928
1962	0.0179824
1974	0.0170421
1986	0.0170421
1998	0.0155142
2010	0.014574
2022	0.0142214
2034	0.012811
2046	0.0131636
2058	0.0135162
2070	0.0133986
2082	0.0139863
2094	0.0143389
2106	0.0139863
2118	0.0150441
2130	0.0153967
2142	0.0146915
2154	0.014574
2166	0.0136337
2178	0.0137512
2190	0.0144564
2202	0.0143389
2214	0.0151616
2226	0.0149266
2238	0.0137512
2250	0.012811
2262	0.0137512
2274	0.0126935
2286	0.0131636
2298	0.0144564
2310	0.0143389
2322	0.0130461
2334	0.00940256
2346	0.00869737
2358	0.0122233
2370	0.00869737
2382	0.00940256
2394	0.0106954
2406	0.0105779
2418	0.011048
2430	0.0114006
2442	0.0106954
2454	0.0104603
2466	0.0105779
2478	0.00987269
2490	0.0105779
2502	0.00987269
2514	0.00928503
2526	0.00952009
2538	0.00904996
2550	0.00869737
2562	0.00987269
2574	0.0103428
2586	0.0117532
2598	0.012811
2610	0.0139863
2622	0.0151616
2634	0.0159844
2646	0.0166895
2658	0.0192752
2670	0.0213908
2682	0.0224486
2694	0.027385
2706	0.0336142
2718	0.038433
2730	0.0444271
2742	0.0492459
2754	0.0513615
2766	0.0546524
2778	0.0638199
2790	0.0762783
2802	0.0922626
2814	0.106366
2826	0.138688
2838	0.215789
2850	0.307816
2862	0.411244
2874	0.531715
2886	0.555339
2898	0.445211
2910	0.347542
2922	0.29289
2934	0.317219
2946	0.363174
2958	0.334614
2970	0.424761
2982	0.574967
2994	0.444036
3006	0.229775
3018	0.137395
3030	0.0947308
3042	0.0629972
3054	0.0434868
3066	0.0286778
3078	0.0226837
3090	0.020333
3102	0.0196278
3114	0.0176298
3126	0.0168071
3138	0.0158668
3150	0.0150441
3162	0.0149266
3174	0.0142214
3186	0.0150441
3198	0.0151616
3210	0.0157493
3222	0.0158668
3234	0.014574
3246	0.0124584
3258	0.0112831
3270	0.0122233
3282	0.0136337
3294	0.0118707
3306	0.0105779
3318	0.012811
3330	0.0104603
3342	0.00869737
3354	0.012811
3366	0.00963762
3378	0.00975516
3390	0.0124584
3402	0.00999022
3414	0.0131636
3426	0.0129285
3438	0.0109305
3450	0.0124584
3462	0.0117532
3474	0.0104603
3486	0.0131636
3498	0.011048
3510	0.0112831
3522	0.0116357
3534	0.00940256
3546	0.0118707
3558	0.0131636
3570	0.0129285
3582	0.0122233
3594	0.0115181
3606	0.0153967
3618	0.0195103
3630	0.022096
3642	0.0177473
3654	0.0169246
3666	0.0192752
3678	0.021861
3690	0.0177473
3702	0.0175123
3714	0.0143389
3726	0.0132811
3738	0.0129285
3750	0.0130461
3762	0.016572
3774	0.0157493
3786	0.016572
3798	0.0133986
3810	0.0144564
3822	0.0130461
3834	0.0153967
3846	0.0141038
3858	0.0136337
3870	0.0161019
3882	0.0184525
3894	0.0142214
3906	0.0144564
3918	0.0136337
3930	0.0137512
3942	0.0157493
3954	0.0193928
3966	0.0182175
