Infrared Spectrum: PROPANOL, 2-METHYL-
Formula: C4 H10 O
CAS: 78-83-1
State: SOLUTION (10% IN CCl4 FOR 3800-1340, 10% IN CS2 FOR 1340-400 CM^-^1) VS. SOLVENT
Class: COBLENTZ III
Instrument: DOW KBr FOREPRISM-GRATING
Instrument parameters: BLAZED AT 3.5, 12.0, 20.0 MICRON, CHANGED AT 5.0, 7.5, 14.9 MICRON
Sampling: TRANSMISSION
Path length: 0.011, 0.011 CM
Resolution: 4
Origin: DOW CHEMICAL COMPANY
1/CM	TRANSMITTANCE
401.682	0.963
410.383	0.967
419.083	0.961
427.784	0.957
436.485	0.954
445.186	0.942
453.886	0.924
462.587	0.898
471.288	0.878
479.988	0.849
488.689	0.741
497.39	0.704
506.091	0.812
514.791	0.825
523.492	0.816
532.193	0.804
540.893	0.795
549.594	0.786
558.295	0.777
566.996	0.763
575.696	0.751
584.397	0.736
593.098	0.711
601.798	0.711
610.499	0.71
619.2	0.706
627.901	0.703
636.601	0.7
645.302	0.703
654.003	0.709
662.703	0.715
671.404	0.722
680.105	0.733
688.805	0.751
697.506	0.769
706.207	0.785
714.908	0.804
723.608	0.826
732.309	0.848
741.01	0.864
749.71	0.881
758.411	0.898
767.112	0.918
775.813	0.927
784.513	0.919
793.214	0.946
801.915	0.954
810.615	0.913
819.316	0.674
828.017	0.913
836.718	1.001
845.418	1.023
854.119	1.023
862.82	1.015
871.52	1.012
880.221	0.998
888.922	0.96
897.623	0.79
906.323	0.833
915.024	0.926
923.725	0.898
932.425	0.714
941.126	0.5951
949.827	0.859
958.528	0.666
967.228	0.883
975.929	0.878
984.63	0.8
993.33	0.5239
1002.03	0.282
1010.73	0.535
1019.43	0.351
1028.13	0.0909
1036.83	0.013
1045.53	0.024
1054.24	0.143
1062.94	0.4671
1071.64	0.74
1080.34	0.815
1089.04	0.811
1097.74	0.786
1106.44	0.707
1115.14	0.665
1123.84	0.71
1132.54	0.748
1141.24	0.797
1149.94	0.851
1158.64	0.857
1167.34	0.83
1176.05	0.795
1184.75	0.856
1193.45	0.883
1202.15	0.87
1210.85	0.831
1219.55	0.76
1228.25	0.689
1236.95	0.624
1245.65	0.632
1254.35	0.726
1263.05	0.77
1271.75	0.751
1280.45	0.71
1289.15	0.706
1297.86	0.758
1306.56	0.751
1315.26	0.698
1323.96	0.62
1332.66	0.579
1341.36	0.565
1350.06	0.558
1358.76	0.538
1367.46	0.3158
1376.16	0.457
1384.86	0.33
1393.56	0.315
1402.26	0.423
1410.96	0.493
1419.67	0.523
1428.37	0.547
1437.07	0.556
1445.77	0.524
1454.47	0.398
1463.17	0.1889
1471.87	0.135
1480.57	0.3163
1489.27	0.698
1497.97	0.815
1506.67	0.87
1515.37	0.9
1524.07	0.924
1532.77	0.954
1541.48	0.983
1550.18	0.987
1558.88	0.987
1567.58	0.978
1576.28	0.975
1584.98	0.972
1593.68	0.967
1602.38	0.956
1611.08	0.946
1619.78	0.938
1628.48	0.931
1637.18	0.935
1645.88	0.945
1654.58	0.949
1663.29	0.954
1671.99	0.963
1680.69	0.965
1689.39	0.968
1698.09	0.968
1706.79	0.965
1715.49	0.971
1724.19	0.979
1732.89	0.987
1741.59	0.99
1750.29	0.991
1758.99	0.993
1767.69	0.997
1776.39	0.998
1785.1	1
1793.8	1.002
1802.5	1.002
1811.2	1.002
1819.9	1.005
1828.6	1.006
1837.3	1.004
1846	1.006
1854.7	1.006
1863.4	1.006
1872.1	1.005
1880.8	1.005
1889.5	1.004
1898.2	1.004
1906.91	1.005
1915.61	1.004
1924.31	1.004
1933.01	1
1941.71	0.995
1950.41	1
1959.11	1
1967.81	0.998
1976.51	0.998
1985.21	0.995
1993.91	0.994
2002.61	0.995
2011.31	0.995
2020.01	0.995
2028.72	0.9975
2037.42	0.992
2046.12	0.989
2054.82	0.9791
2063.52	0.975
2072.22	0.9769
2080.92	0.9795
2089.62	0.986
2098.32	0.991
2107.02	0.9944
2115.72	0.997
2124.42	1
2133.12	1
2141.82	0.998
2150.53	0.994
2159.23	0.994
2167.93	1
2176.63	0.9962
2185.33	0.994
2194.03	0.9974
2202.73	1
2211.43	1
2220.13	0.9992
2228.83	0.998
2237.53	0.993
2246.23	0.989
2254.93	0.987
2263.63	0.987
2272.34	0.9864
2281.04	0.986
2289.74	0.9864
2298.44	0.991
2307.14	0.993
2315.84	0.9907
2324.54	0.9853
2333.24	0.9853
2341.94	0.984
2350.64	0.984
2359.34	0.984
2368.04	0.986
2376.74	0.9854
2385.44	0.976
2394.15	0.976
2402.85	0.976
2411.55	0.9757
2420.25	0.9734
2428.95	0.969
2437.65	0.9687
2446.35	0.9647
2455.05	0.9592
2463.75	0.9555
2472.45	0.954
2481.15	0.952
2489.85	0.9497
2498.55	0.945
2507.25	0.942
2515.96	0.941
2524.66	0.9365
2533.36	0.931
2542.06	0.9268
2550.76	0.923
2559.46	0.9146
2568.16	0.905
2576.86	0.9
2585.56	0.904
2594.26	0.905
2602.96	0.9026
2611.66	0.8978
2620.36	0.894
2629.06	0.8916
2637.77	0.8858
2646.47	0.8778
2655.17	0.8718
2663.87	0.871
2672.57	0.87
2681.27	0.8665
2689.97	0.8587
2698.67	0.8507
2707.37	0.8214
2716.07	0.7544
2724.77	0.743
2733.47	0.7701
2742.17	0.7655
2750.87	0.7517
2759.57	0.7409
2768.28	0.7286
2776.98	0.7128
2785.68	0.6919
2794.38	0.6472
2803.08	0.5927
2811.78	0.5525
2820.48	0.5241
2829.18	0.4744
2837.88	0.4232
2846.58	0.3551
2855.28	0.2196
2863.98	0.1023
2872.68	0.0271
2881.38	0.0696
2890.09	0.0909
2898.79	0.088
2907.49	0.0578
2916.19	0.051
2924.89	0.04
2933.59	0.042
2942.29	0.043
2950.99	0.0188
2959.69	0.01
2968.39	0.017
2977.09	0.0452
2985.79	0.1815
2994.49	0.4761
3003.19	0.6439
3011.9	0.699
3020.6	0.7588
3029.3	0.7839
3038	0.793
3046.7	0.795
3055.4	0.793
3064.1	0.788
3072.8	0.7772
3081.5	0.7652
3090.2	0.7512
3098.9	0.7362
3107.6	0.7112
3116.3	0.6911
3125	0.6613
3133.71	0.6374
3142.41	0.6078
3151.11	0.5874
3159.81	0.5616
3168.51	0.5245
3177.21	0.4894
3185.91	0.4577
3194.61	0.4231
3203.31	0.3897
3212.01	0.3568
3220.71	0.3256
3229.41	0.281
3238.11	0.2506
3246.81	0.2149
3255.52	0.1911
3264.22	0.1628
3272.92	0.1397
3281.62	0.1184
3290.32	0.1026
3299.02	0.0942
3307.72	0.0802
3316.42	0.0733
3325.12	0.0663
3333.82	0.064
3342.52	0.0648
3351.22	0.0658
3359.92	0.069
3368.62	0.0754
3377.33	0.08
3386.03	0.0878
3394.73	0.099
3403.43	0.1136
3412.13	0.1244
3420.83	0.135
3429.53	0.1517
3438.23	0.1643
3446.93	0.1841
3455.63	0.1988
3464.33	0.2218
3473.03	0.2468
3481.73	0.2653
3490.43	0.3033
3499.14	0.3338
3507.84	0.3645
3516.54	0.4032
3525.24	0.4452
3533.94	0.4974
3542.64	0.5521
3551.34	0.6097
3560.04	0.6525
3568.74	0.6975
3577.44	0.7487
3586.14	0.7996
3594.84	0.8318
3603.54	0.842
3612.24	0.8352
3620.95	0.8003
3629.65	0.697
3638.35	0.6235
3647.05	0.6217
3655.75	0.7692
3664.45	0.8997
3673.15	0.9143
3681.85	0.912
3690.55	0.9295
3699.25	0.9642
3707.95	0.982
3716.65	0.99
3725.35	0.994
3734.05	0.9993
3742.76	1.0004
3751.46	0.9974
3760.16	0.995
3768.86	0.995
3777.56	0.995
3786.26	0.995
3794.96	0.995
