Infrared Spectrum: PROPANOL, 2-METHYL-
Formula: C4 H10 O
CAS: 78-83-1
State: SOLUTION (0.5% IN CCl4 FOR 3800-1333, 0.5% IN CS2 FOR 1333-450 CM^-^1) VS SOLVENT
Class: COBLENTZ III
Instrument: DOW KBr FOREPRISM-GRATING
Instrument parameters: BLAZED AT 3.5, 12.0, 20.0 MICRON, CHANGED AT 5.0, 7.5, 14.9 MICRON
Sampling: TRANSMISSION
Path length: 0.054, 0.051 CM
Resolution: 4
Origin: DOW CHEMICAL COMPANY
1/CM	TRANSMITTANCE
391.304	0.951
400.756	0.956
410.208	0.961
419.659	0.964
429.111	0.964
438.563	0.964
448.015	0.958
457.467	0.951
466.919	0.95
476.37	0.939
485.822	0.906
495.274	0.939
504.726	0.951
514.178	0.95
523.629	0.95
533.081	0.953
542.533	0.956
551.985	0.96
561.437	0.966
570.889	0.967
580.34	0.969
589.792	0.967
599.244	0.973
608.696	0.98
618.148	0.985
627.599	0.986
637.051	0.989
646.503	0.991
655.955	0.995
665.407	1
674.859	1.007
684.31	1.017
693.762	1.02
703.214	1.02
712.666	1.021
722.118	1.023
731.569	1.021
741.021	1.024
750.473	1.027
759.925	1.033
769.377	1.032
778.829	1.029
788.28	1.035
797.732	1.004
807.184	0.986
816.636	0.942
826.088	0.991
835.539	0.995
844.991	0.985
854.443	0.978
863.895	0.975
873.347	0.972
882.799	0.96
892.25	0.919
901.702	0.939
911.154	0.957
920.606	0.942
930.058	0.887
939.509	0.888
948.961	0.928
958.413	0.898
967.865	0.925
977.317	0.906
986.769	0.824
996.22	0.733
1005.67	0.837
1015.12	0.772
1024.58	0.491
1034.03	0.178
1043.48	0.598
1052.93	0.815
1062.38	0.885
1071.83	0.895
1081.29	0.887
1090.74	0.872
1100.19	0.876
1109.64	0.89
1119.09	0.903
1128.55	0.907
1138	0.91
1147.45	0.912
1156.9	0.903
1166.35	0.888
1175.8	0.891
1185.26	0.903
1194.71	0.894
1204.16	0.875
1213.61	0.844
1223.06	0.838
1232.52	0.853
1241.97	0.87
1251.42	0.885
1260.87	0.885
1270.32	0.89
1279.77	0.894
1289.23	0.891
1298.68	0.876
1308.13	0.875
1317.58	0.868
1327.03	0.857
1336.49	0.837
1345.94	0.831
1355.39	0.824
1364.84	0.731
1374.29	0.763
1383.74	0.746
1393.2	0.712
1402.65	0.813
1412.1	0.85
1421.55	0.862
1431	0.862
1440.46	0.853
1449.91	0.788
1459.36	0.687
1468.81	0.633
1478.26	0.75
1487.71	0.882
1497.17	0.897
1506.62	0.906
1516.07	0.91
1525.52	0.914
1534.97	0.914
1544.43	0.913
1553.88	0.913
1563.33	0.914
1572.78	0.914
1582.23	0.916
1591.68	0.916
1601.14	0.917
1610.59	0.917
1620.04	0.917
1629.49	0.922
1638.94	0.925
1648.4	0.926
1657.85	0.926
1667.3	0.928
1676.75	0.929
1686.2	0.928
1695.65	0.926
1705.11	0.925
1714.56	0.926
1724.01	0.932
1733.46	0.936
1742.91	0.938
1752.37	0.941
1761.82	0.941
1771.27	0.942
1780.72	0.947
1790.17	0.95
1799.62	0.951
1809.08	0.951
1818.53	0.951
1827.98	0.953
1837.43	0.953
1846.88	0.953
1856.34	0.951
1865.79	0.95
1875.24	0.953
1884.69	0.951
1894.14	0.951
1903.59	0.95
1913.05	0.95
1922.5	0.95
1931.95	0.948
1941.4	0.95
1950.85	0.951
1960.31	0.953
1969.76	0.953
1979.21	0.957
1988.66	0.958
1998.11	0.957
2007.56	0.958
2017.02	0.958
2026.47	0.96
2035.92	0.958
2045.37	0.957
2054.82	0.956
2064.28	0.96
2073.73	0.958
2083.18	0.963
2092.63	0.964
2102.08	0.966
2111.53	0.964
2120.99	0.966
2130.44	0.967
2139.89	0.967
2149.34	0.967
2158.79	0.967
2168.25	0.967
2177.7	0.967
2187.15	0.969
2196.6	0.969
2206.05	0.969
2215.5	0.969
2224.96	0.9691
2234.41	0.97
2243.86	0.972
2253.31	0.973
2262.76	0.972
2272.22	0.9701
2281.67	0.972
2291.12	0.975
2300.57	0.976
2310.02	0.9802
2319.47	0.988
2328.93	0.988
2338.38	0.988
2347.83	0.988
2357.28	0.988
2366.73	0.988
2376.19	0.9859
2385.64	0.9799
2395.09	0.98
2404.54	0.98
2413.99	0.982
2423.44	0.982
2432.9	0.982
2442.35	0.985
2451.8	0.985
2461.25	0.9851
2470.7	0.988
2480.16	0.988
2489.61	0.988
2499.06	0.988
2508.51	0.988
2517.96	0.988
2527.41	0.988
2536.87	0.988
2546.32	0.988
2555.77	0.9858
2565.22	0.983
2574.67	0.985
2584.13	0.985
2593.58	0.986
2603.03	0.985
2612.48	0.982
2621.93	0.982
2631.38	0.982
2640.84	0.982
2650.29	0.979
2659.74	0.98
2669.19	0.98
2678.64	0.98
2688.1	0.98
2697.55	0.976
2707	0.9664
2716.45	0.957
2725.9	0.956
2735.35	0.957
2744.81	0.9508
2754.26	0.948
2763.71	0.9448
2773.16	0.941
2782.61	0.9358
2792.07	0.9283
2801.52	0.9198
2810.97	0.9138
2820.42	0.8986
2829.87	0.8713
2839.32	0.835
2848.78	0.7658
2858.23	0.6405
2867.68	0.4198
2877.13	0.4782
2886.58	0.5822
2896.04	0.5782
2905.49	0.5222
2914.94	0.5065
2924.39	0.4775
2933.84	0.5003
2943.29	0.4774
2952.75	0.279
2962.2	0.269
2971.65	0.4146
2981.1	0.6433
2990.55	0.8594
3000.01	0.9201
3009.46	0.9533
3018.91	0.9633
3028.36	0.9693
3037.81	0.976
3047.26	0.979
3056.72	0.979
3066.17	0.9806
3075.62	0.982
3085.07	0.982
3094.52	0.982
3103.98	0.982
3113.43	0.982
3122.88	0.98
3132.33	0.98
3141.78	0.98
3151.23	0.9787
3160.69	0.978
3170.14	0.978
3179.59	0.978
3189.04	0.978
3198.49	0.978
3207.95	0.978
3217.4	0.979
3226.85	0.979
3236.3	0.978
3245.75	0.978
3255.2	0.978
3264.66	0.978
3274.11	0.976
3283.56	0.9726
3293.01	0.972
3302.46	0.97
3311.92	0.966
3321.37	0.9593
3330.82	0.957
3340.27	0.956
3349.72	0.9552
3359.17	0.954
3368.63	0.953
3378.08	0.953
3387.53	0.954
3396.98	0.954
3406.43	0.954
3415.89	0.9506
3425.34	0.947
3434.79	0.945
3444.24	0.944
3453.69	0.941
3463.14	0.9386
3472.6	0.935
3482.05	0.9316
3491.5	0.9272
3500.95	0.923
3510.4	0.9224
3519.86	0.926
3529.31	0.9314
3538.76	0.9354
3548.21	0.9459
3557.66	0.954
3567.11	0.96
3576.57	0.966
3586.02	0.967
3595.47	0.963
3604.92	0.9551
3614.37	0.9146
3623.83	0.8029
3633.28	0.7178
3642.73	0.6216
3652.18	0.7695
3661.63	0.9223
3671.08	0.9569
3680.54	0.965
3689.99	0.969
3699.44	0.972
3708.89	0.9824
3718.34	0.991
3727.8	0.994
3737.25	0.998
3746.7	0.997
3756.15	0.992
3765.6	0.992
3775.05	0.994
3784.51	0.994
3793.96	0.997
