Infrared Spectrum: PROPANOL, 2-METHYL-
Formula: C4 H10 O
CAS: 78-83-1
State: VAPOR (SATURATED)
Class: COBLENTZ
Instrument: DOW KBr FOREPRISM-GRATING
Instrument parameters: BLAZED AT 3.5, 12.0, 20.0 MICRON, CHANGED AT 5.0, 7.5, 14.9 MICRON
Sampling: TRANSMISSION
Path length: 12.5 CM
Resolution: 4
Origin: DOW CHEMICAL COMPANY
1/CM	TRANSMITTANCE
457.627	0.718
466.102	0.706
474.576	0.692
483.051	0.686
491.525	0.687
500	0.705
508.475	0.736
516.949	0.741
525.424	0.741
533.898	0.743
542.373	0.741
550.848	0.744
559.322	0.744
567.797	0.741
576.271	0.741
584.746	0.743
593.221	0.74
601.695	0.743
610.17	0.752
618.645	0.759
627.119	0.765
635.594	0.768
644.068	0.771
652.543	0.771
661.018	0.774
669.492	0.775
677.967	0.774
686.441	0.778
694.916	0.78
703.391	0.784
711.865	0.782
720.34	0.784
728.814	0.784
737.289	0.79
745.764	0.787
754.238	0.788
762.713	0.788
771.187	0.787
779.662	0.781
788.137	0.772
796.611	0.756
805.086	0.74
813.56	0.725
822.035	0.737
830.51	0.759
838.984	0.772
847.459	0.777
855.933	0.78
864.408	0.777
872.883	0.758
881.357	0.724
889.832	0.697
898.307	0.693
906.781	0.706
915.256	0.702
923.73	0.671
932.205	0.639
940.68	0.633
949.154	0.62
957.629	0.637
966.103	0.659
974.578	0.656
983.053	0.59
991.527	0.527
1000	0.464
1008.48	0.467
1016.95	0.41
1025.43	0.249
1033.9	0.068
1042.37	0.049
1050.85	0.052
1059.32	0.1039
1067.8	0.4467
1076.27	0.548
1084.75	0.577
1093.22	0.596
1101.7	0.611
1110.17	0.629
1118.65	0.658
1127.12	0.692
1135.6	0.7
1144.07	0.699
1152.54	0.693
1161.02	0.68
1169.49	0.675
1177.97	0.664
1186.44	0.687
1194.92	0.686
1203.39	0.659
1211.87	0.614
1220.34	0.555
1228.82	0.548
1237.29	0.561
1245.77	0.615
1254.24	0.661
1262.71	0.683
1271.19	0.696
1279.66	0.705
1288.14	0.706
1296.61	0.703
1305.09	0.699
1313.56	0.693
1322.04	0.686
1330.51	0.67
1338.99	0.646
1347.46	0.617
1355.94	0.567
1364.41	0.489
1372.88	0.472
1381.36	0.417
1389.83	0.434
1398.31	0.467
1406.78	0.536
1415.26	0.664
1423.73	0.733
1432.21	0.739
1440.68	0.692
1449.16	0.593
1457.63	0.492
1466.11	0.426
1474.58	0.4259
1483.05	0.504
1491.53	0.59
1500	0.728
1508.48	0.794
1516.95	0.81
1525.43	0.813
1533.9	0.825
1542.38	0.826
1550.85	0.837
1559.33	0.841
1567.8	0.841
1576.28	0.844
1584.75	0.85
1593.22	0.848
1601.7	0.85
1610.17	0.856
1618.65	0.863
1627.12	0.856
1635.6	0.85
1644.07	0.838
1652.55	0.837
1661.02	0.841
1669.5	0.84
1677.97	0.837
1686.44	0.838
1694.92	0.835
1703.39	0.84
1711.87	0.838
1720.34	0.84
1728.82	0.837
1737.29	0.843
1745.77	0.846
1754.24	0.853
1762.72	0.86
1771.19	0.859
1779.67	0.859
1788.14	0.857
1796.61	0.86
1805.09	0.862
1813.56	0.862
1822.04	0.863
1830.51	0.865
1838.99	0.863
1847.46	0.865
1855.94	0.866
1864.41	0.866
1872.89	0.869
1881.36	0.869
1889.84	0.87
1898.31	0.87
1906.78	0.869
1915.26	0.87
1923.73	0.87
1932.21	0.869
1940.68	0.869
1949.16	0.869
1957.63	0.869
1966.11	0.87
1974.58	0.869
1983.06	0.869
1991.53	0.87
2000.01	0.873
2008.48	0.8755
2016.95	0.879
2025.43	0.881
2033.9	0.884
2042.38	0.881
2050.85	0.881
2059.33	0.8797
2067.8	0.8701
2076.28	0.868
2084.75	0.865
2093.23	0.8702
2101.7	0.8838
2110.18	0.8888
2118.65	0.891
2127.12	0.892
2135.6	0.892
2144.07	0.895
2152.55	0.897
2161.02	0.898
2169.5	0.897
2177.97	0.897
2186.45	0.8972
2194.92	0.895
2203.4	0.898
2211.87	0.9
2220.35	0.901
2228.82	0.9007
2237.29	0.9008
2245.77	0.903
2254.24	0.9015
2262.72	0.901
2271.19	0.9
2279.67	0.901
2288.14	0.9016
2296.62	0.9
2305.09	0.9051
2313.57	0.913
2322.04	0.914
2330.51	0.916
2338.99	0.914
2347.46	0.9138
2355.94	0.913
2364.41	0.91
2372.89	0.91
2381.36	0.91
2389.84	0.909
2398.31	0.909
2406.79	0.907
2415.26	0.907
2423.74	0.907
2432.21	0.907
2440.68	0.909
2449.16	0.912
2457.63	0.913
2466.11	0.914
2474.58	0.916
2483.06	0.917
2491.53	0.919
2500.01	0.922
2508.48	0.925
2516.96	0.923
2525.43	0.922
2533.91	0.922
2542.38	0.9225
2550.85	0.9201
2559.33	0.919
2567.8	0.9161
2576.28	0.9152
2584.75	0.9121
2593.23	0.9124
2601.7	0.916
2610.18	0.9136
2618.65	0.912
2627.13	0.9096
2635.6	0.9061
2644.08	0.904
2652.55	0.903
2661.02	0.903
2669.5	0.9038
2677.97	0.9037
2686.45	0.901
2694.92	0.8977
2703.4	0.8902
2711.87	0.8749
2720.35	0.8523
2728.82	0.8297
2737.3	0.822
2745.77	0.8225
2754.25	0.8243
2762.72	0.8128
2771.19	0.8046
2779.67	0.7998
2788.14	0.7946
2796.62	0.7832
2805.09	0.7743
2813.57	0.7598
2822.04	0.742
2830.52	0.7075
2838.99	0.6585
2847.47	0.5612
2855.94	0.45
2864.42	0.3142
2872.89	0.1161
2881.36	0.114
2889.84	0.1218
2898.31	0.1343
2906.79	0.14
2915.26	0.1309
2923.74	0.1201
2932.21	0.1078
2940.69	0.0878
2949.16	0.0578
2957.64	0.0392
2966.11	0.0301
2974.59	0.0436
2983.06	0.0653
2991.53	0.2786
3000.01	0.5583
3008.48	0.7976
3016.96	0.9027
3025.43	0.9184
3033.91	0.9289
3042.38	0.932
3050.86	0.934
3059.33	0.935
3067.81	0.936
3076.28	0.936
3084.75	0.936
3093.23	0.936
3101.7	0.938
3110.18	0.9398
3118.65	0.942
3127.13	0.9433
3135.6	0.939
3144.08	0.9373
3152.55	0.935
3161.03	0.931
3169.5	0.928
3177.98	0.923
3186.45	0.9276
3194.92	0.9326
3203.4	0.9376
3211.87	0.9443
3220.35	0.9508
3228.82	0.9563
3237.3	0.958
3245.77	0.958
3254.25	0.961
3262.72	0.961
3271.2	0.9625
3279.67	0.963
3288.15	0.9624
3296.62	0.9626
3305.09	0.958
3313.57	0.957
3322.04	0.956
3330.52	0.957
3338.99	0.958
3347.47	0.96
3355.94	0.963
3364.42	0.964
3372.89	0.966
3381.37	0.969
3389.84	0.969
3398.32	0.969
3406.79	0.9678
3415.26	0.969
3423.74	0.972
3432.21	0.973
3440.69	0.973
3449.16	0.9719
3457.64	0.969
3466.11	0.9701
3474.59	0.9695
3483.06	0.967
3491.54	0.972
3500.01	0.975
3508.49	0.976
3516.96	0.976
3525.43	0.978
3533.91	0.978
3542.38	0.978
3550.86	0.979
3559.33	0.979
3567.81	0.979
3576.28	0.978
3584.76	0.978
3593.23	0.978
3601.71	0.976
3610.18	0.9648
3618.66	0.9435
3627.13	0.9291
3635.6	0.8696
3644.08	0.7526
3652.55	0.6698
3661.03	0.6133
3669.5	0.6216
3677.98	0.6972
3686.45	0.8375
3694.93	0.9646
3703.4	0.9788
3711.88	0.9836
3720.35	0.9876
3728.83	0.988
3737.3	0.9875
3745.77	0.9895
3754.25	0.991
3762.72	0.988
3771.2	0.9853
3779.67	0.983
3788.15	0.983
3796.62	0.983
