Infrared Spectrum: 1-Propanol, 2-methyl-
Formula: C 4 H 10 O
CAS: 78-83-1
State: gas
Origin: Sadtler Research Labs Under US-EPA Contract
1/CM	ABSORBANCE
450	0
462	0.00962015
474	0.0291314
486	0.0372611
498	0.0294024
510	0.013956
522	0.00867168
534	0.00677475
546	0.00867168
558	0.00582628
570	0.00867168
582	0.00745222
594	0.0107041
606	0.0100266
618	0.00894267
630	0.00596178
642	0.00663925
654	0.00663925
666	0.00650376
678	0.00636826
690	0.00582628
702	0.00636826
714	0.0054198
726	0.00596178
738	0.00704574
750	0.00785871
762	0.00880717
774	0.0132785
786	0.0109751
798	0.0246601
810	0.0356352
822	0.0317058
834	0.0254731
846	0.0168014
858	0.0161239
870	0.0224922
882	0.0368546
894	0.0516236
906	0.0621922
918	0.068696
930	0.081297
942	0.0901042
954	0.0937625
966	0.0887492
978	0.115984
990	0.173027
1002	0.246465
1014	0.319497
1026	0.618535
1038	0.908494
1050	0.916353
1062	0.50499
1074	0.13956
1086	0.105957
1098	0.103383
1110	0.0986404
1122	0.0857683
1134	0.0746577
1146	0.0743868
1158	0.080755
1170	0.0863103
1182	0.0876653
1194	0.0879363
1206	0.103383
1218	0.130482
1230	0.141186
1242	0.129262
1254	0.104738
1266	0.0911881
1278	0.0849554
1290	0.0829229
1302	0.082381
1314	0.0834649
1326	0.0887492
1338	0.102841
1350	0.127501
1362	0.173163
1374	0.192945
1386	0.231154
1398	0.196603
1410	0.140373
1422	0.0765547
1434	0.068967
1446	0.1149
1458	0.16964
1470	0.212321
1482	0.185628
1494	0.121404
1506	0.0594823
1518	0.0315703
1530	0.0237116
1542	0.0215437
1554	0.0188338
1566	0.0180208
1578	0.0196468
1590	0.0193758
1602	0.0174789
1614	0.0155819
1626	0.013956
1638	0.014227
1650	0.0132785
1662	0.0121945
1674	0.012872
1686	0.013414
1698	0.0130075
1710	0.0107041
1722	0.0104331
1734	0.0105686
1746	0.0102976
1758	0.0108396
1770	0.0107041
1782	0.00894267
1794	0.00853618
1806	0.00826519
1818	0.00785871
1830	0.0081297
1842	0.00758772
1854	0.00731673
1866	0.00731673
1878	0.00663925
1890	0.00718123
1902	0.00704574
1914	0.00731673
1926	0.00745222
1938	0.00826519
1950	0.00772321
1962	0.00731673
1974	0.00704574
1986	0.00663925
1998	0.00555529
2010	0.00433584
2022	0.00433584
2034	0.00406485
2046	0.00569079
2058	0.00880717
2070	0.0112461
2082	0.0113816
2094	0.00853618
2106	0.0054198
2118	0.00474232
2130	0.00474232
2142	0.00501331
2154	0.00447133
2166	0.00501331
2178	0.0054198
2190	0.00487782
2202	0.00433584
2214	0.00433584
2226	0.00433584
2238	0.00420034
2250	0.00474232
2262	0.0054198
2274	0.00623277
2286	0.00569079
2298	0.0054198
2310	0.00392935
2322	0.00460683
2334	0.00474232
2346	0.00406485
2358	0.00406485
2370	0.00501331
2382	0.00447133
2394	0.00677475
2406	0.00907816
2418	0.00907816
2430	0.00934915
2442	0.00921366
2454	0.00880717
2466	0.00853618
2478	0.00826519
2490	0.00758772
2502	0.00731673
2514	0.00636826
2526	0.00650376
2538	0.00609727
2550	0.00785871
2562	0.00894267
2574	0.0111106
2586	0.0127365
2598	0.0130075
2610	0.014769
2622	0.0149044
2634	0.0178853
2646	0.0188338
2658	0.0186983
2670	0.0207307
2682	0.0219502
2694	0.0224922
2706	0.026557
2718	0.0365836
2730	0.0482362
2742	0.0571789
2754	0.0608373
2766	0.0615147
2778	0.0632762
2790	0.0680185
2802	0.0751997
2814	0.0883427
2826	0.105822
2838	0.146877
2850	0.229258
2862	0.393477
2874	0.659183
2886	0.750507
2898	0.812293
2910	0.768392
2922	0.772321
2934	0.810396
2946	0.91974
2958	1.13829
2970	1.21756
2982	0.906462
2994	0.37776
3006	0.111106
3018	0.0508106
3030	0.0386161
3042	0.0360417
3054	0.0345512
3066	0.0322478
3078	0.0346867
3090	0.0361772
3102	0.0311638
3114	0.026557
3126	0.0242536
3138	0.025744
3150	0.026286
3162	0.026557
3174	0.0284539
3186	0.0288604
3198	0.0233051
3210	0.0208662
3222	0.0184273
3234	0.013685
3246	0.0117881
3258	0.0120591
3270	0.0102976
3282	0.0102976
3294	0.012601
3306	0.0104331
3318	0.0124655
3330	0.014769
3342	0.012872
3354	0.0101621
3366	0.0112461
3378	0.0100266
3390	0.0112461
3402	0.0102976
3414	0.012872
3426	0.014227
3438	0.00989113
3450	0.0115171
3462	0.0127365
3474	0.00921366
3486	0.0113816
3498	0.00948465
3510	0.00853618
3522	0.00894267
3534	0.00785871
3546	0.00718123
3558	0.00636826
3570	0.00555529
3582	0.00392935
3594	0.00718123
3606	0.00650376
3618	0.0115171
3630	0.0249311
3642	0.0445779
3654	0.103654
3666	0.156361
3678	0.169098
3690	0.113003
3702	0.0441714
3714	0.013956
3726	0.00880717
3738	0.00826519
3750	0.00392935
3762	0.0052843
3774	0.00745222
3786	0.00826519
3798	0.0108396
3810	0.00962015
3822	0.0108396
3834	0.00772321
3846	0.0113816
3858	0.013143
3870	0.0108396
3882	0.00853618
3894	0.00934915
3906	0.00555529
3918	0.0079942
3930	0.00745222
3942	0.00392935
3954	0.00853618
3966	0.00569079
