Infrared Spectrum: 2-CHLORO-1,3-BUTADIENE
Formula: C4 H5 Cl
CAS: 126-99-8
Class: COBLENTZ
Instrument: Not specified, most likely a prism, grating, or hybrid spectrometer.
Sampling: TRANSMISSION
Path length: 0.0025 CM
Resolution: 4
Origin: W.T. BOLLETER
MICROMETERS	TRANSMITTANCE
14.503	0.241
14.5735	0.245
14.6439	0.284
14.7144	0.349
14.7848	0.37
14.8553	0.378
14.9257	0.363
14.9962	0.336
15.0667	0.302
15.1371	0.25
15.2076	0.189
15.278	0.152
15.3485	0.134
15.4189	0.103
15.4894	0.075
15.5599	0.03
15.6303	0.016
15.7008	0.005
15.7712	0.001
15.8417	0
15.9121	0
15.9826	0
16.0531	0.003
16.1235	0.014
16.194	0.035
16.2644	0.091
16.3349	0.155
16.4053	0.218
16.4758	0.283
16.5463	0.356
16.6167	0.403
16.6872	0.433
16.7576	0.455
16.8281	0.473
16.8985	0.482
16.969	0.482
17.0395	0.474
17.1099	0.473
17.1804	0.476
17.2508	0.485
17.3213	0.494
17.3917	0.501
17.4622	0.505
17.5327	0.508
17.6031	0.516
17.6736	0.521
17.744	0.53
17.8145	0.551
17.8849	0.573
17.9554	0.6
18.0259	0.625
18.0963	0.641
18.1668	0.661
18.2372	0.677
18.3077	0.684
18.3781	0.686
18.4486	0.681
18.5191	0.67
18.5895	0.657
18.66	0.632
18.7304	0.6
18.8009	0.546
18.8713	0.476
18.9418	0.397
19.0123	0.318
19.0827	0.241
19.1532	0.184
19.2236	0.175
19.2941	0.215
19.3645	0.299
19.435	0.396
19.5055	0.48
19.5759	0.537
19.6464	0.602
19.7168	0.637
19.7873	0.661
19.8577	0.688
19.9282	0.698
19.9987	0.707
20.0691	0.707
20.1396	0.706
20.21	0.704
20.2805	0.7
20.3509	0.695
20.4214	0.682
20.4919	0.666
20.5623	0.645
20.6328	0.634
20.7032	0.632
20.7737	0.648
20.8442	0.663
20.9146	0.682
20.9851	0.691
21.0555	0.697
21.126	0.704
21.1964	0.713
21.2669	0.716
21.3374	0.722
21.4078	0.729
21.4783	0.731
21.5487	0.732
21.6192	0.734
21.6896	0.731
21.7601	0.732
21.8306	0.731
21.901	0.729
21.9715	0.724
22.0419	0.718
22.1124	0.713
22.1828	0.707
22.2533	0.702
22.3238	0.697
22.3942	0.689
22.4647	0.686
22.5351	0.668
22.6056	0.657
22.676	0.637
22.7465	0.616
22.817	0.602
22.8874	0.571
22.9579	0.532
23.0283	0.498
23.0988	0.464
23.1692	0.433
23.2397	0.403
23.3102	0.376
23.3806	0.335
23.4511	0.31
23.5215	0.265
23.592	0.22
23.6624	0.172
23.7329	0.136
23.8034	0.096
23.8738	0.066
23.9443	0.039
24.0147	0.017
24.0852	0.014
24.1556	0.012
24.2261	0.01
24.2966	0.007
24.367	0.003
24.4375	0.003
24.5079	0.005
24.5784	0.007
24.6488	0.007
24.7193	0.012
24.7898	0.026
24.8602	0.039
24.9307	0.053
25.0011	0.073
25.0716	0.098
25.142	0.123
25.2125	0.15
25.283	0.164
25.3534	0.182
25.4239	0.197
25.4943	0.2
25.5648	0.195
25.6352	0.179
25.7057	0.159
25.7762	0.132
25.8466	0.114
25.9171	0.1
25.9875	0.109
26.058	0.146
26.1284	0.181
26.1989	0.24
26.2694	0.297
26.3398	0.367
26.4103	0.413
26.4807	0.449
26.5512	0.491
26.6216	0.525
26.6921	0.548
26.7626	0.577
26.833	0.603
26.9035	0.632
26.9739	0.65
27.0444	0.659
27.1148	0.681
27.1853	0.702
27.2558	0.709
27.3262	0.724
27.3967	0.732
27.4671	0.747
27.5376	0.754
27.608	0.765
27.6785	0.774
27.749	0.788
27.8194	0.801
27.8899	0.806
27.9603	0.811
28.0308	0.824
28.1012	0.831
28.1717	0.836
28.2422	0.842
28.3126	0.853
28.3831	0.86
28.4535	0.862
28.524	0.87
28.5944	0.878
28.6649	0.881
28.7354	0.881
28.8058	0.885
28.8763	0.89
28.9467	0.897
29.0172	0.899
29.0876	0.899
29.1581	0.903
29.2286	0.905
29.299	0.906
29.3695	0.91
29.4399	0.912
29.5104	0.913
29.5808	0.913
29.6513	0.913
29.7218	0.915
29.7922	0.915
29.8627	0.919
29.9331	0.919
30.0036	0.921
30.074	0.922
30.1445	0.922
30.215	0.922
30.2854	0.921
30.3559	0.922
30.4263	0.922
30.4968	0.921
30.5672	0.919
30.6377	0.921
30.7082	0.921
30.7786	0.922
30.8491	0.922
30.9195	0.922
30.99	0.922
31.0604	0.922
31.1309	0.924
31.2014	0.922
31.2718	0.922
31.3423	0.922
31.4127	0.922
31.4832	0.921
31.5536	0.919
31.6241	0.917
31.6946	0.919
31.765	0.921
31.8355	0.921
31.9059	0.919
31.9764	0.919
32.0468	0.919
32.1173	0.919
32.1878	0.919
32.2582	0.913
32.3287	0.912
32.3991	0.91
32.4696	0.908
32.5401	0.91
32.6105	0.91
32.681	0.91
32.7514	0.908
32.8219	0.906
32.8923	0.903
32.9628	0.897
33.0333	0.892
33.1037	0.89
33.1742	0.89
33.2446	0.887
33.3151	0.888
33.3855	0.887
33.456	0.883
33.5265	0.879
33.5969	0.876
33.6674	0.872
33.7378	0.867
33.8083	0.863
33.8787	0.858
33.9492	0.854
34.0197	0.851
34.0901	0.847
34.1606	0.844
34.231	0.842
34.3015	0.838
34.3719	0.831
34.4424	0.827
34.5129	0.822
34.5833	0.815
34.6538	0.804
34.7242	0.797
34.7947	0.792
34.8651	0.788
34.9356	0.786
35.0061	0.783
35.0765	0.783
35.147	0.775
35.2174	0.77
35.2879	0.763
35.3583	0.759
35.4288	0.75
35.4993	0.743
35.5697	0.738
35.6402	0.732
35.7106	0.731
35.7811	0.722
35.8515	0.716
35.922	0.709
35.9925	0.702
36.0629	0.698
36.1334	0.693
36.2038	0.689
36.2743	0.688
36.3447	0.682
36.4152	0.681
36.4857	0.679
36.5561	0.672
36.6266	0.67
36.697	0.666
36.7675	0.661
36.8379	0.655
36.9084	0.65
36.9789	0.641
37.0493	0.629
37.1198	0.621
37.1902	0.616
37.2607	0.611
37.3311	0.607
37.4016	0.605
37.4721	0.602
37.5425	0.598
37.613	0.596
37.6834	0.591
37.7539	0.589
37.8243	0.589
37.8948	0.584
37.9653	0.582
