Infrared Spectrum: 3-Methyl-1,3-pentadiene (c,t)
Formula: C 6 H 10
CAS: 4549-74-0
State: gas
Instrument: HP-GC/MS/IRD
Origin: NIST Mass Spectrometry Data Center
1/CM	ABSORBANCE
550	0.0002135
562	0.0001218
574	0.000119
586	0.00014
598	0.000112
610	0.0001407
622	0.0001211
634	4.9e-05
646	0.0001358
658	0.0002401
670	0.0002492
682	0.0003311
694	0.000385
706	0.0004102
718	0.0004326
730	0.000441
742	0.0004151
754	0.0003801
766	0.0003024
778	0.0003479
790	0.0005761
802	0.0009618
814	0.0016534
826	0.0013811
838	0.0010451
850	0.0006265
862	0.0007084
874	0.0013524
886	0.0025193
898	0.0044023
910	0.0045367
922	0.0032655
934	0.0017794
946	0.0009625
958	0.0009562
970	0.0014273
982	0.0021259
994	0.0020111
1006	0.0015344
1018	0.0009961
1030	0.0009233
1042	0.0009177
1054	0.0009401
1066	0.0010409
1078	0.0011354
1090	0.0013111
1102	0.001155
1114	0.0008911
1126	0.0003731
1138	0.0002268
1150	0.0001687
1162	0.0001022
1174	0.0001449
1186	0.0001624
1198	0.0001659
1210	0.0002114
1222	0.0003136
1234	0.0003997
1246	0.0003934
1258	0.0003388
1270	0.0002947
1282	0.0003059
1294	0.000322
1306	0.0003332
1318	0.0003486
1330	0.0003941
1342	0.0005131
1354	0.0006979
1366	0.0011074
1378	0.0013825
1390	0.0015771
1402	0.0012537
1414	0.0014147
1426	0.0016499
1438	0.0017297
1450	0.0016436
1462	0.0013664
1474	0.0011494
1486	0.0007924
1498	0.000609
1510	0.0005621
1522	0.0005376
1534	0.0005131
1546	0.0005271
1558	0.000581
1570	0.0007518
1582	0.0011956
1594	0.0016982
1606	0.001834
1618	0.0014882
1630	0.0011837
1642	0.0011739
1654	0.0010143
1666	0.0005803
1678	0.0003283
1690	0.0002345
1702	0.0002065
1714	0.000175
1726	0.0001575
1738	0.0001491
1750	0.0001295
1762	0.0001449
1774	0.0001918
1786	0.0003654
1798	0.0006118
1810	0.0008099
1822	0.0007959
1834	0.0006132
1846	0.0004564
1858	0.0003325
1870	0.0002408
1882	0.0001526
1894	0.0001134
1906	8.96e-05
1918	9.94e-05
1930	5.88e-05
1942	8.54e-05
1954	0.0001232
1966	0.0001043
1978	0.0001176
1990	6.72e-05
2002	6.44e-05
2014	7.28e-05
2026	6.3e-05
2038	5.32e-05
2050	7.77e-05
2062	7.7e-05
2074	3.99e-05
2086	4.13e-05
2098	5.46e-05
2110	5.81e-05
2122	4.48e-05
2134	4.48e-05
2146	6.72e-05
2158	2.87e-05
2170	4.55e-05
2182	4.48e-05
2194	2.59e-05
2206	3.99e-05
2218	3.29e-05
2230	5.74e-05
2242	4.41e-05
2254	5.39e-05
2266	4.41e-05
2278	2.52e-05
2290	2.8e-05
2302	4.9e-05
2314	6.23e-05
2326	6.02e-05
2338	3.71e-05
2350	5.6e-05
2362	1.47e-05
2374	6.79e-05
2386	9.52e-05
2398	8.96e-05
2410	7.42e-05
2422	8.54e-05
2434	7.35e-05
2446	9.66e-05
2458	9.8e-05
2470	7.77e-05
2482	7e-05
2494	5.39e-05
2506	4.76e-05
2518	4.9e-05
2530	7.7e-05
2542	6.37e-05
2554	7.14e-05
2566	4.83e-05
2578	5.53e-05
2590	4.69e-05
2602	5.04e-05
2614	6.3e-05
2626	8.4e-05
2638	9.73e-05
2650	8.47e-05
2662	7.84e-05
2674	0.0001176
2686	0.0001372
2698	0.0001295
2710	0.0001519
2722	0.0002345
2734	0.000329
2746	0.0003696
2758	0.0003584
2770	0.0002863
2782	0.0002674
2794	0.0003248
2806	0.0004333
2818	0.0005285
2830	0.0007672
2842	0.0011067
2854	0.0021224
2866	0.003311
2878	0.0039053
2890	0.0039977
2902	0.0042812
2914	0.00553
2926	0.0067858
2938	0.007
2950	0.0061376
2962	0.0049784
2974	0.0051695
2986	0.0052024
2998	0.0050631
3010	0.0050414
3022	0.004977
3034	0.0043876
3046	0.0031227
3058	0.0021903
3070	0.0020237
3082	0.0025277
3094	0.0026684
3106	0.0024633
3118	0.0011928
3130	0.0006391
3142	0.0004018
3154	0.0003185
3166	0.0002646
3178	0.0002548
3190	0.0002009
3202	0.0001638
3214	0.0001561
3226	0.0001484
3238	0.000119
3250	0.0001078
3262	0.0001008
3274	0.0001309
3286	0.000119
3298	7.21e-05
3310	7e-05
3322	4.48e-05
3334	0.0001057
3346	5.25e-05
3358	4.9e-05
3370	6.86e-05
3382	7.35e-05
3394	9.45e-05
3406	0.0001001
3418	6.65e-05
3430	8.33e-05
3442	8.75e-05
3454	5.74e-05
3466	0.0001071
3478	0.0001225
3490	7.98e-05
3502	0.0001099
3514	9.52e-05
3526	9.31e-05
3538	8.54e-05
3550	6.44e-05
3562	0.0001246
3574	5.39e-05
3586	7.84e-05
3598	7.49e-05
3610	0.0001183
3622	5.81e-05
3634	5.74e-05
3646	6.58e-05
3658	3.85e-05
3670	1.96e-05
3682	9.94e-05
3694	6.93e-05
3706	4.97e-05
3718	7.91e-05
3730	8.61e-05
3742	8.89e-05
3754	8.47e-05
3766	7.49e-05
3778	4.41e-05
3790	8.33e-05
3802	7.63e-05
3814	2.87e-05
3826	4.55e-05
3838	8.19e-05
