Infrared Spectrum: Aminoiminomethanesulfinic acid
Formula: C H4 N2 O2 S
CAS: 1758-73-2
State: SOLID (SPLIT MULL), FLUOROLUBE FOR 3800-1330 CM^-^1, NUJOL FOR 1330-400 CM^-^1
Class: COBLENTZ II
Instrument: DOW KBr FOREPRISM-GRATING
Instrument parameters: BLAZED AT 3.5, 12.0, 20.0 MICRON AND CHANGED AT 5.0, 7.5, 14.9 MICRON
Sampling: TRANSMISSION
Resolution: 2
Origin: DOW CHEMICAL COMPANY
1/CM	TRANSMITTANCE
379	0.8404
388	0.8397
397	0.8427
406	0.8498
415	0.8828
424	0.9268
433	0.943
442	0.9499
451	0.9521
460	0.9521
469	0.9496
478	0.9396
487	0.897
496	0.7892
505	0.4241
514	0.9494
523	0.9653
532	0.9674
541	0.9651
550	0.9616
559	0.9575
568	0.9518
577	0.9444
586	0.9321
595	0.9196
604	0.9021
613	0.8381
622	0.6561
631	0.8706
640	0.848
649	0.8164
658	0.7637
667	0.6734
676	0.5591
685	0.3145
694	0.1827
703	0.4324
712	0.3941
721	0.2257
730	0.1126
739	0.0569
748	0.0559
757	0.0926
766	0.1801
775	0.2876
784	0.4473
793	0.5601
802	0.6995
811	0.7597
820	0.7854
829	0.8098
838	0.8228
847	0.8327
856	0.8442
865	0.8537
874	0.8554
883	0.8491
892	0.8395
901	0.8335
910	0.8246
919	0.8126
928	0.7987
937	0.7801
946	0.7571
955	0.729
964	0.6905
973	0.6324
982	0.5315
991	0.2108
1000	0.011
1009	0.0284
1018	0.2948
1027	0.0512
1036	0.162
1045	0.0413
1054	0.0249
1063	0.0331
1072	0.1181
1081	0.3277
1090	0.5821
1099	0.6942
1108	0.7301
1117	0.7211
1126	0.7514
1135	0.7915
1144	0.7997
1153	0.8083
1162	0.8145
1171	0.8157
1180	0.8158
1189	0.8158
1198	0.8157
1207	0.8155
1216	0.8145
1225	0.8107
1234	0.8054
1243	0.8
1252	0.7951
1261	0.7908
1270	0.7869
1279	0.7836
1288	0.7775
1297	0.7628
1306	0.7572
1315	0.758
1324	0.7084
1333	0.6339
1342	0.6218
1351	0.6424
1360	0.618
1369	0.5926
1378	0.5665
1387	0.5388
1396	0.5056
1405	0.463
1414	0.4152
1423	0.3623
1432	0.3121
1441	0.3609
1450	0.4637
1459	0.4717
1468	0.4742
1477	0.4824
1486	0.4969
1495	0.5118
1504	0.5272
1513	0.5435
1522	0.5643
1531	0.5867
1540	0.6101
1549	0.6344
1558	0.6569
1567	0.6744
1576	0.6878
1585	0.6919
1594	0.6853
1603	0.6706
1612	0.6528
1621	0.6387
1630	0.6275
1639	0.6102
1648	0.5777
1657	0.5183
1666	0.3739
1675	0.204
1684	0.0467
1693	0.0095
1702	0.046
1711	0.3307
1720	0.6789
1729	0.7676
1738	0.8209
1747	0.86
1756	0.8856
1765	0.8897
1774	0.8916
1783	0.8914
1792	0.8903
1801	0.8896
1810	0.8901
1819	0.8928
1828	0.8978
1837	0.9041
1846	0.909
1855	0.9091
1864	0.9098
1873	0.9099
1882	0.9091
1891	0.9093
1900	0.9084
1909	0.9074
1918	0.9062
1927	0.9037
1936	0.8985
1945	0.8928
1954	0.8938
1963	0.8902
1972	0.8764
1981	0.8664
1990	0.8434
1999	0.8631
2008	0.8705
2017	0.8685
2026	0.8644
2035	0.8577
2044	0.8497
2053	0.8414
2062	0.8391
2071	0.8428
2080	0.8485
2089	0.8474
2098	0.8449
2107	0.8421
2116	0.8402
2125	0.8384
2134	0.8364
2143	0.8335
2152	0.8303
2161	0.8278
2170	0.8234
2179	0.816
2188	0.8084
2197	0.8
2206	0.7921
2215	0.7845
2224	0.7778
2233	0.7804
2242	0.7836
2251	0.7851
2260	0.7811
2269	0.7751
2278	0.7697
2287	0.7683
2296	0.7692
2305	0.7711
2314	0.7736
2323	0.776
2332	0.7786
2341	0.7811
2350	0.7841
2359	0.7874
2368	0.7905
2377	0.7908
2386	0.7839
2395	0.7793
2404	0.7775
2413	0.7756
2422	0.7731
2431	0.7703
2440	0.7676
2449	0.765
2458	0.7621
2467	0.7589
2476	0.7551
2485	0.7511
2494	0.7465
2503	0.7415
2512	0.735
2521	0.7271
2530	0.7192
2539	0.7103
2548	0.7011
2557	0.6947
2566	0.6882
2575	0.6801
2584	0.6715
2593	0.663
2602	0.6544
2611	0.6446
2620	0.6354
2629	0.6285
2638	0.6225
2647	0.6169
2656	0.6112
2665	0.6052
2674	0.5992
2683	0.5925
2692	0.5858
2701	0.576
2710	0.566
2719	0.5536
2728	0.5378
2737	0.5164
2746	0.4907
2755	0.4604
2764	0.436
2773	0.4209
2782	0.4127
2791	0.4151
2800	0.4285
2809	0.4403
2818	0.448
2827	0.4499
2836	0.4488
2845	0.4454
2854	0.4385
2863	0.427
2872	0.4109
2881	0.3925
2890	0.372
2899	0.3538
2908	0.34
2917	0.324
2926	0.3048
2935	0.2834
2944	0.256
2953	0.2235
2962	0.1948
2971	0.1735
2980	0.1492
2989	0.1215
2998	0.0936
3007	0.0654
3016	0.037
3025	0.0222
3034	0.0142
3043	0.0088
3052	0.0076
3061	0.008
3070	0.009
3079	0.0104
3088	0.0129
3097	0.0158
3106	0.0194
3115	0.0233
3124	0.0265
3133	0.0293
3142	0.0336
3151	0.0427
3160	0.0558
3169	0.0672
3178	0.0726
3187	0.0724
3196	0.0693
3205	0.0627
3214	0.0544
3223	0.0448
3232	0.0345
3241	0.0245
3250	0.0166
3259	0.012
3268	0.011
3277	0.0111
3286	0.0123
3295	0.0145
3304	0.0182
3313	0.0233
3322	0.0333
3331	0.0555
3340	0.1131
3349	0.1915
3358	0.3069
3367	0.3762
3376	0.454
3385	0.5551
3394	0.6031
3403	0.6719
3412	0.7067
3421	0.7568
3430	0.8022
3439	0.8385
3448	0.8612
3457	0.8753
3466	0.8844
3475	0.8899
3484	0.894
3493	0.8966
3502	0.8987
3511	0.9006
3520	0.9021
3529	0.9027
3538	0.9034
3547	0.9037
3556	0.9028
3565	0.9021
3574	0.9013
3583	0.9001
3592	0.8978
3601	0.8957
3610	0.8935
3619	0.891
3628	0.8886
3637	0.886
3646	0.8835
3655	0.8806
3664	0.8777
3673	0.8748
3682	0.8718
3691	0.8689
3700	0.866
3709	0.8633
3718	0.861
3727	0.8587
3736	0.8568
3745	0.8553
3754	0.8537
3763	0.8525
3772	0.8518
3781	0.8509
3790	0.8501
3799	0.8492
3808	0.8482
3817	0.8471
