Infrared Spectrum: 1,3-Dichloropropene
Formula: C 3 H 4 Cl 2
CAS: 542-75-6
State: gas
Instrument: HP-GC/MS/IRD
Origin: NIST Mass Spectrometry Data Center
1/CM	ABSORBANCE
550	0.0009216
562	0.0006372
574	0.0001116
586	0.0002772
598	0.0002358
610	0.0002808
622	0.0004212
634	0.0005598
646	0.000828
658	0.0013842
670	0.002196
682	0.0026568
694	0.0022356
706	0.0020232
718	0.0030042
730	0.005274
742	0.0070164
754	0.0092952
766	0.0153018
778	0.0172224
790	0.0107694
802	0.0047574
814	0.0027828
826	0.0015408
838	0.0008586
850	0.0005814
862	0.0005238
874	0.000522
886	0.0005868
898	0.0006138
910	0.0005328
922	0.0004536
934	0.0004734
946	0.0002952
958	0.0002808
970	0.000342
982	0.0004266
994	0.0003762
1006	0.0005238
1018	0.0007884
1030	0.0008316
1042	0.0006912
1054	0.0003276
1066	0.000198
1078	0.0001314
1090	0.0001854
1102	0.0001566
1114	0.0002142
1126	0.0001548
1138	0.0001314
1150	0.0003042
1162	0.000324
1174	0.000333
1186	0.0003222
1198	0.0004608
1210	0.0009306
1222	0.0014886
1234	0.0016092
1246	0.0033228
1258	0.00585
1270	0.0055368
1282	0.001485
1294	0.0008226
1306	0.0009396
1318	0.0019116
1330	0.0033624
1342	0.0034758
1354	0.0024192
1366	0.00117
1378	0.0004572
1390	0.0002862
1402	0.0002916
1414	0.0003186
1426	0.0005274
1438	0.0007344
1450	0.0008082
1462	0.0006318
1474	0.0004158
1486	0.0002844
1498	0.0002322
1510	0.0002322
1522	0.000198
1534	0.0002232
1546	0.0002628
1558	0.0003258
1570	0.000558
1582	0.000972
1594	0.0014364
1606	0.0023994
1618	0.0045468
1630	0.0049122
1642	0.0028836
1654	0.0009954
1666	0.0005274
1678	0.0004176
1690	0.0003366
1702	0.0002592
1714	0.0001458
1726	0.000108
1738	9.36e-05
1750	0.0001404
1762	0.000108
1774	0.0001134
1786	0.000117
1798	0.0001458
1810	0.0001332
1822	0.000144
1834	0.0001062
1846	8.64e-05
1858	5.76e-05
1870	8.1e-05
1882	2.7e-05
1894	6.66e-05
1906	3.96e-05
1918	6.3e-05
1930	5.76e-05
1942	8.28e-05
1954	4.5e-05
1966	4.86e-05
1978	4.14e-05
1990	3.06e-05
2002	4.68e-05
2014	1.44e-05
2026	1.98e-05
2038	4.14e-05
2050	5.22e-05
2062	2.16e-05
2074	5.58e-05
2086	5.58e-05
2098	8.1e-05
2110	5.4e-05
2122	8.28e-05
2134	5.04e-05
2146	4.5e-05
2158	5.04e-05
2170	3.24e-05
2182	4.14e-05
2194	5.76e-05
2206	4.32e-05
2218	1.44e-05
2230	4.5e-05
2242	4.32e-05
2254	6.12e-05
2266	6.48e-05
2278	5.4e-05
2290	6.48e-05
2302	7.74e-05
2314	0.0001134
2326	0.0001116
2338	0.000153
2350	0.0001404
2362	0.0001602
2374	0.0001674
2386	0.0001494
2398	0.0001548
2410	0.000126
2422	0.0001044
2434	0.000117
2446	0.0001098
2458	0.0001386
2470	0.0001332
2482	0.000126
2494	0.0001062
2506	0.0001404
2518	0.0001278
2530	0.0001332
2542	0.0001206
2554	0.000108
2566	0.0001206
2578	9.18e-05
2590	0.0001278
2602	0.0001134
2614	0.0001584
2626	0.0001314
2638	0.0001134
2650	0.0001098
2662	0.0001404
2674	0.0001278
2686	0.0001782
2698	0.0002196
2710	0.000207
2722	0.0001656
2734	0.0001368
2746	0.0001368
2758	0.0002016
2770	0.0001872
2782	0.0001746
2794	0.0001242
2806	0.0001782
2818	0.0001674
2830	0.0002124
2842	0.0002016
2854	0.0002772
2866	0.0002934
2878	0.000297
2890	0.0003366
2902	0.0003096
2914	0.0003852
2926	0.0004572
2938	0.0006858
2950	0.0009504
2962	0.0011088
2974	0.0010026
2986	0.0009846
2998	0.0007956
3010	0.0006426
3022	0.0005364
3034	0.0004608
3046	0.00054
3058	0.0005544
3070	0.0006264
3082	0.0008694
3094	0.000891
3106	0.000711
3118	0.0003312
3130	0.0001962
3142	0.0001638
3154	0.000135
3166	8.28e-05
3178	0.0001746
3190	0.000144
3202	0.000171
3214	0.0001314
3226	0.0001152
3238	0.0001764
3250	0.0001314
3262	0.0001008
3274	0.0001296
3286	0.0001152
3298	9.36e-05
3310	8.46e-05
3322	0.0001422
3334	0.0001206
3346	0.0001458
3358	5.58e-05
3370	3.78e-05
3382	4.86e-05
3394	0.0001098
3406	6.66e-05
3418	1.44e-05
3430	0.0001098
3442	7.2e-05
3454	7.92e-05
3466	0.0001044
3478	5.4e-05
3490	0.0001008
3502	8.64e-05
3514	4.14e-05
3526	6.48e-05
3538	5.76e-05
3550	1.8e-05
3562	5.76e-05
3574	3.42e-05
3586	8.28e-05
3598	0.0001134
3610	0.0001152
3622	5.58e-05
3634	1.62e-05
3646	0.0001098
3658	4.14e-05
3670	6.3e-05
3682	7.2e-05
3694	5.4e-05
3706	7.56e-05
3718	4.5e-05
3730	0.0001188
3742	8.28e-05
3754	8.64e-05
3766	5.58e-05
3778	9.72e-05
3790	0.0001152
3802	0.0001512
3814	0.0001494
3826	9.9e-05
3838	4.14e-05
