Infrared Spectrum: ETHANE, 1,2-DICHLORO-1,1-DIFLUORO-
Formula: C2 H2 Cl2 F2
CAS: 1649-08-7
State: SOLUTION (10% IN CCl4 FOR 3800-1340 AND 10% IN CS2 FOR 1340-450 CM^-^1)
Class: COBLENTZ III
Instrument: DOW KBr FOREPRISM-GRATING
Instrument parameters: BLAZED AT 3.5, 12.0, 20.0 MICRON, CHANGED AT 5.0, 7.5, 14.9 MICRON
Sampling: TRANSMISSION
Path length: 0.011, 0.011 CM
Resolution: 4
Origin: DOW CHEMICAL COMPANY
1/CM	TRANSMITTANCE
452.202	0.964
460.893	0.968
469.583	0.976
478.274	0.979
486.964	0.989
495.655	0.991
504.346	0.997
513.036	0.997
521.727	0.995
530.418	0.986
539.108	0.941
547.799	0.944
556.489	0.536
565.18	0.906
573.871	0.697
582.561	0.899
591.252	0.995
599.943	1.014
608.633	1.02
617.324	1.017
626.014	1.004
634.705	0.968
643.396	0.894
652.086	0.724
660.777	0.411
669.468	0.887
678.158	0.942
686.849	0.983
695.539	0.994
704.23	0.997
712.921	0.991
721.611	0.97
730.302	0.926
738.993	0.865
747.683	0.5659
756.374	0.044
765.064	0.532
773.755	0.741
782.446	0.797
791.136	0.807
799.827	0.76
808.518	0.332
817.208	0.5141
825.899	0.917
834.589	0.934
843.28	0.892
851.971	0.807
860.661	0.8
869.352	0.788
878.043	0.641
886.733	0.619
895.424	0.667
904.114	0.888
912.805	0.926
921.496	0.858
930.186	0.741
938.877	0.73
947.568	0.421
956.258	0.062
964.949	0.104
973.639	0.577
982.33	0.577
991.021	0.717
999.711	0.673
1008.4	0.447
1017.09	0.021
1025.78	0.3361
1034.47	0.747
1043.16	0.835
1051.85	0.705
1060.55	0.687
1069.24	0.493
1077.93	0.214
1086.62	0.033
1095.31	0.052
1104	0.027
1112.69	0.4
1121.38	0.653
1130.07	0.764
1138.76	0.832
1147.45	0.762
1156.14	0.758
1164.83	0.82
1173.52	0.633
1182.21	0.1
1190.9	0.565
1199.6	0.517
1208.29	0.375
1216.98	0.116
1225.67	0.163
1234.36	0.103
1243.05	0.168
1251.74	0.267
1260.43	0.73
1269.12	0.853
1277.81	0.902
1286.5	0.854
1295.19	0.614
1303.88	0.626
1312.57	0.853
1321.26	0.915
1329.95	0.933
1338.65	0.936
1347.34	0.948
1356.03	0.948
1364.72	0.966
1373.41	0.915
1382.1	0.865
1390.79	0.936
1399.48	0.957
1408.17	0.949
1416.86	0.921
1425.55	0.6829
1434.24	0.798
1442.93	0.922
1451.62	0.955
1460.31	0.953
1469	0.953
1477.7	0.936
1486.39	0.925
1495.08	0.894
1503.77	0.836
1512.46	0.781
1521.15	0.735
1529.84	0.69
1538.53	0.607
1547.22	0.514
1555.91	0.513
1564.6	0.589
1573.29	0.661
1581.98	0.688
1590.67	0.735
1599.36	0.82
1608.05	0.899
1616.75	0.94
1625.44	0.959
1634.13	0.97
1642.82	0.978
1651.51	0.982
1660.2	0.979
1668.89	0.979
1677.58	0.971
1686.27	0.98
1694.96	0.985
1703.65	0.99
1712.34	0.987
1721.03	0.986
1729.72	0.985
1738.41	0.978
1747.1	0.979
1755.8	0.98
1764.49	0.98
1773.18	0.978
1781.87	0.979
1790.56	0.978
1799.25	0.979
1807.94	0.978
1816.63	0.975
1825.32	0.975
1834.01	0.974
1842.7	0.964
1851.39	0.967
1860.08	0.966
1868.77	0.968
1877.46	0.974
1886.15	0.976
1894.85	0.978
1903.54	0.974
1912.23	0.976
1920.92	0.979
1929.61	0.979
1938.3	0.978
1946.99	0.978
1955.68	0.976
1964.37	0.971
1973.06	0.971
1981.75	0.963
1990.44	0.96
1999.13	0.964
2007.82	0.9795
2016.51	0.9745
2025.2	0.971
2033.9	0.973
2042.59	0.9715
2051.28	0.9675
2059.97	0.9665
2068.66	0.9665
2077.35	0.9665
2086.04	0.9745
2094.73	0.978
2103.42	0.9745
2112.11	0.9691
2120.8	0.963
2129.49	0.957
2138.18	0.9709
2146.87	0.9731
2155.56	0.967
2164.25	0.966
2172.95	0.9627
2181.64	0.957
2190.33	0.961
2199.02	0.9621
2207.71	0.959
2216.4	0.9674
2225.09	0.978
2233.78	0.979
2242.47	0.9786
2251.16	0.9734
2259.85	0.966
2268.54	0.9666
2277.23	0.964
2285.92	0.9582
2294.61	0.955
2303.3	0.9526
2312	0.948
2320.69	0.9484
2329.38	0.9593
2338.07	0.97
2346.76	0.978
2355.45	0.9858
2364.14	0.982
2372.83	0.9824
2381.52	0.9815
2390.21	0.9761
2398.9	0.98
2407.59	0.9837
2416.28	0.985
2424.97	0.9843
2433.66	0.983
2442.35	0.983
2451.05	0.9853
2459.74	0.983
2468.43	0.985
2477.12	0.986
2485.81	0.99
2494.5	0.9883
2503.19	0.987
2511.88	0.985
2520.57	0.9853
2529.26	0.986
2537.95	0.986
2546.64	0.9893
2555.33	0.99
2564.02	0.9884
2572.71	0.9867
2581.4	0.9857
2590.1	0.9863
2598.79	0.986
2607.48	0.98
2616.17	0.986
2624.86	0.986
2633.55	0.9814
2642.24	0.9831
2650.93	0.987
2659.62	0.9863
2668.31	0.9797
2677	0.987
2685.69	0.989
2694.38	0.9915
2703.07	0.99
2711.76	0.9857
2720.45	0.98
2729.15	0.983
2737.84	0.987
2746.53	0.9875
2755.22	0.99
2763.91	0.985
2772.6	0.9822
2781.29	0.989
2789.98	0.9892
2798.67	0.989
2807.36	0.9885
2816.05	0.986
2824.74	0.985
2833.43	0.9791
2842.12	0.9673
2850.81	0.9764
2859.5	0.979
2868.2	0.978
2876.89	0.979
2885.58	0.983
2894.27	0.982
2902.96	0.979
2911.65	0.974
2920.34	0.9668
2929.03	0.964
2937.72	0.9662
2946.41	0.9656
2955.1	0.9443
2963.79	0.8921
2972.48	0.8495
2981.17	0.773
2989.86	0.8908
2998.55	0.9385
3007.25	0.9573
3015.94	0.9549
3024.63	0.9325
3033.32	0.9216
3042.01	0.9396
3050.7	0.9593
3059.39	0.967
3068.08	0.9683
3076.77	0.9751
3085.46	0.9799
3094.15	0.976
3102.84	0.9791
3111.53	0.9821
3120.22	0.986
3128.91	0.985
3137.6	0.983
3146.3	0.987
3154.99	0.987
3163.68	0.99
3172.37	0.991
3181.06	0.991
3189.75	0.991
3198.44	0.9912
3207.13	0.993
3215.82	0.99
3224.51	0.9912
3233.2	0.9948
3241.89	0.993
3250.58	0.991
3259.27	0.991
3267.96	0.9971
3276.65	0.9929
3285.35	0.989
3294.04	0.9911
3302.73	0.994
3311.42	0.995
3320.11	0.9971
3328.8	0.9979
3337.49	0.995
3346.18	0.991
3354.87	1.001
3363.56	0.9969
3372.25	1
3380.94	1.001
3389.63	0.9969
3398.32	0.993
3407.01	0.995
3415.7	0.993
3424.4	0.993
3433.09	0.995
3441.78	0.995
3450.47	1
3459.16	0.994
3467.85	0.991
3476.54	1
3485.23	0.997
3493.92	1
3502.61	0.998
3511.3	0.995
3519.99	1.001
3528.68	1.001
3537.37	1.001
3546.06	1.001
3554.75	0.998
3563.45	1
3572.14	1
3580.83	0.997
3589.52	1.001
3598.21	1
3606.9	0.993
3615.59	0.995
3624.28	0.993
3632.97	0.9968
3641.66	0.998
3650.35	0.995
3659.04	0.994
3667.73	0.998
3676.42	1.0001
3685.11	0.9931
3693.8	0.9947
3702.5	1.0001
3711.19	0.9971
3719.88	1.0019
3728.57	1.002
3737.26	1.0019
3745.95	1.0011
3754.64	1.001
3763.33	1
3772.02	1
3780.71	0.997
3789.4	1
3798.09	0.998
