Infrared Spectrum: Ethanamine, N,N-dimethyl-
Formula: C 4 H 11 N
CAS: 598-56-1
State: gas
Origin: Sadtler Research Labs Under US-EPA Contract
1/CM	ABSORBANCE
450	0.0074802
462	0.0152097
474	0.0179525
486	0.02456
498	0.0177031
510	0.0108463
522	0.00598416
534	0.00473746
546	0.00199472
558	0.00274274
570	0
582	0.00236873
594	0.00299208
606	0.00087269
618	0.00174538
630	0.00211939
642	0.00286741
654	0.00162071
666	0.0024934
678	0.00236873
690	0.00386477
702	0.00286741
714	0.00349076
726	0.0037401
738	0.00785421
750	0.0196979
762	0.0508654
774	0.0886404
786	0.169302
798	0.0908844
810	0.060465
822	0.0275521
834	0.010597
846	0.00673218
858	0.00411411
870	0.0037401
882	0.00311675
894	0.00511147
906	0.00885157
918	0.0157084
930	0.0332869
942	0.075176
954	0.114322
966	0.0855236
978	0.0364036
990	0.0172045
1002	0.0221913
1014	0.0489953
1026	0.122925
1038	0.227024
1050	0.315041
1062	0.342219
1074	0.274648
1086	0.198225
1098	0.155214
1110	0.137511
1122	0.07555
1134	0.0440085
1146	0.074054
1158	0.127911
1170	0.180522
1182	0.122177
1194	0.0890144
1206	0.0937518
1218	0.130654
1230	0.126789
1242	0.10198
1254	0.130405
1266	0.184761
1278	0.207326
1290	0.185758
1302	0.146986
1314	0.099736
1326	0.0543561
1338	0.0423878
1350	0.0618363
1362	0.0915078
1374	0.192241
1386	0.231388
1398	0.185634
1410	0.0477486
1422	0.0544808
1434	0.141376
1446	0.271282
1458	0.383859
1470	0.321898
1482	0.228021
1494	0.117688
1506	0.0458786
1518	0.0183265
1530	0.0114696
1542	0.00797888
1554	0.0103476
1566	0.0103476
1578	0.0100983
1590	0.00685685
1602	0.00573482
1614	0.00448812
1626	0.00236873
1638	0.00436345
1650	0.0012467
1662	0.00561015
1674	0.00299208
1686	0.00361543
1698	0.00398944
1710	0.00885157
1722	0.00910091
1734	0.00436345
1746	0.00274274
1758	0.00286741
1770	0.00199472
1782	0.00274274
1794	0.00261807
1806	0.00511147
1818	0.00585949
1830	0.0049868
1842	0.00635817
1854	0.00660751
1866	0.00336609
1878	0.00324142
1890	0.00224406
1902	0.00224406
1914	0.00087269
1926	0.00099736
1938	0.00149604
1950	0.00236873
1962	0.00224406
1974	0.00224406
1986	0.0024934
1998	0.00349076
2010	0.00448812
2022	0.00411411
2034	0.00536081
2046	0.00772954
2058	0.00810355
2070	0.00660751
2082	0.00398944
2094	0.0024934
2106	0.00199472
2118	0.00187005
2130	0.00199472
2142	0.00099736
2154	0.00149604
2166	0.00224406
2178	0.00211939
2190	0.00137137
2202	0.00049868
2214	0.00012467
2226	0.00012467
2238	0.00087269
2250	0.00236873
2262	0.00299208
2274	0.00299208
2286	0.00137137
2298	0.00049868
2310	0.00174538
2322	0.0037401
2334	0.00486213
2346	0.00448812
2358	0.00386477
2370	0.00436345
2382	0.00386477
2394	0.00411411
2406	0.00523614
2418	0.00598416
2430	0.00735553
2442	0.00660751
2454	0.00598416
2466	0.00610883
2478	0.00835289
2490	0.0119683
2502	0.0157084
2514	0.0162071
2526	0.0165811
2538	0.0170798
2550	0.0175785
2562	0.0177031
2574	0.0195732
2586	0.0213186
2598	0.0233133
2610	0.0219419
2622	0.0233133
2634	0.0296715
2646	0.0392711
2658	0.0508654
2670	0.0557275
2682	0.0705632
2694	0.0882664
2706	0.12841
2718	0.180772
2730	0.248343
2742	0.351819
2754	0.622851
2766	0.928792
2778	1.16866
2790	1.16554
2802	0.86708
2814	0.697279
2826	0.665862
2838	0.468759
2850	0.361668
2862	0.367028
2874	0.396949
2886	0.418642
2898	0.424252
2910	0.444947
2922	0.518752
2934	0.709123
2946	0.910091
2958	1.04723
2970	1.23997
2982	1.17975
2994	0.830302
3006	0.352567
3018	0.104224
3030	0.0493693
3042	0.0357803
3054	0.0319155
3066	0.0339102
3078	0.035905
3090	0.0330376
3102	0.0259314
3114	0.0195732
3126	0.0174538
3138	0.0172045
3150	0.0170798
3162	0.0187005
3174	0.0198225
3186	0.0201965
3198	0.0188252
3210	0.0154591
3222	0.0115943
3234	0.00885157
3246	0.00635817
3258	0.00548548
3270	0.00473746
3282	0.00311675
3294	0.00274274
3306	0.00199472
3318	0.00224406
3330	0.00224406
3342	0.00286741
3354	0.00261807
3366	0.00274274
3378	0.00174538
3390	0.00261807
3402	0.0037401
3414	0.00286741
3426	0.00274274
3438	0.0024934
3450	0.0024934
3462	0.00224406
3474	0.00162071
3486	0.00087269
3498	0.00024934
3510	0.00024934
3522	0.00062335
3534	0.00074802
3546	0.00112203
3558	0.00112203
3570	0.00211939
3582	0.00286741
3594	0.00261807
3606	0.00137137
3618	0.00087269
3630	0.00324142
3642	0.00099736
3654	0.00099736
3666	0.00062335
3678	0.00187005
3690	0.00162071
3702	0.0012467
3714	0.00149604
3726	0.0024934
3738	0.00336609
3750	0.00149604
3762	0.00137137
3774	0.00099736
3786	0.00137137
3798	0.00162071
3810	0.00174538
3822	0.00236873
3834	0.0037401
3846	0.00274274
3858	0.00299208
3870	0.00311675
3882	0.00224406
3894	0.00311675
3906	0.00361543
3918	0.00137137
3930	0.00199472
3942	0.00224406
3954	0.00349076
3966	0.00286741
