Infrared Spectrum: 2-Propenoic acid, 2-methyl-
Formula: C 4 H 6 O 2
CAS: 79-41-4
State: gas
Origin: Sadtler Research Labs Under US-EPA Contract
1/CM	ABSORBANCE
450	0.161336
462	0.156223
474	0.152815
486	0.143441
498	0.210759
510	0.319547
522	0.417542
534	0.405612
546	0.421518
558	0.630005
570	0.856671
582	0.65983
594	0.336306
606	0.185763
618	0.12441
630	0.122138
642	0.145714
654	0.177526
666	0.190876
678	0.134068
690	0.080952
702	0.034085
714	0.00710105
726	0.00454467
738	0.0383457
750	0.121002
762	0.156223
774	0.119582
786	0.0505595
798	0.10538
810	0.194569
822	0.151678
834	0.111344
846	0.0352212
858	0.01335
870	0.0153383
882	0.0150542
894	0.0178946
906	0.034085
918	0.105096
930	0.218996
942	0.455887
954	0.277509
966	0.149122
978	0.0568084
990	0.0920296
1002	0.172698
1014	0.170425
1026	0.102823
1038	0.0383457
1050	0.0440265
1062	0.0710105
1074	0.11106
1086	0.214452
1098	0.622336
1110	1.75368
1122	2.50582
1134	2.45554
1146	1.11373
1158	0.427767
1170	0.233767
1182	0.128387
1194	0.0897573
1206	0.0869169
1218	0.0758392
1230	0.0576605
1242	0.0761233
1254	0.104527
1266	0.111629
1278	0.0798158
1290	0.0701584
1302	0.0911775
1314	0.14827
1326	0.233483
1338	0.348235
1350	0.443958
1362	0.454751
1374	0.335454
1386	0.178094
1398	0.210191
1410	0.255638
1422	0.249673
1434	0.199113
1446	0.210191
1458	0.220133
1470	0.201102
1482	0.0903254
1494	0.040334
1506	0.0428903
1518	0.0357893
1530	0.027268
1542	0.0366414
1554	0.020167
1566	0.0181787
1578	0.0275521
1590	0.0318127
1602	0.0485712
1614	0.0897573
1626	0.163608
1638	0.228654
1650	0.208771
1662	0.107084
1674	0.0445946
1686	0.0789637
1698	0.131511
1710	0.227518
1722	0.325796
1734	0.665226
1746	2.26097
1758	2.63761
1770	2.2445
1782	0.94444
1794	0.223825
1806	0.11873
1818	0.111344
1830	0.074419
1842	0.0511276
1854	0.0224393
1866	0.0346531
1878	0.0488552
1890	0.0536839
1902	0.0377776
1914	0.0190308
1926	0.00482871
1938	0.00227234
1950	0.00113617
1962	0
1974	0.00227234
1986	0.00255638
1998	0.00596488
2010	0.00937339
2022	0.0102255
2034	0.00596488
2046	0.00369255
2058	0.000852126
2070	0.00227234
2082	0.00255638
2094	0.00198829
2106	0.0034085
2118	0.00482871
2130	0.00397659
2142	0.00397659
2154	0.00198829
2166	0.00142021
2178	0.00142021
2190	0.00198829
2202	0.00312446
2214	0.00681701
2226	0.0105096
2238	0.01335
2250	0.0127819
2262	0.00823722
2274	0.00482871
2286	0.00312446
2298	0.00142021
2310	0.00198829
2322	0.00482871
2334	0.00624892
2346	0.00568084
2358	0.00568084
2370	0.00568084
2382	0.00710105
2394	0.00738509
2406	0.00738509
2418	0.00823722
2430	0.00823722
2442	0.0107936
2454	0.0130659
2466	0.0156223
2478	0.0167585
2490	0.0167585
2502	0.0167585
2514	0.0167585
2526	0.0150542
2538	0.0116457
2550	0.0105096
2562	0.0116457
2574	0.01335
2586	0.0150542
2598	0.0153383
2610	0.0153383
2622	0.0153383
2634	0.0144861
2646	0.0122138
2658	0.0116457
2670	0.0122138
2682	0.0144861
2694	0.0156223
2706	0.0156223
2718	0.0161904
2730	0.0161904
2742	0.0181787
2754	0.0198829
2766	0.020451
2778	0.020167
2790	0.020451
2802	0.0224393
2814	0.0247117
2826	0.0281202
2838	0.0320967
2850	0.0400499
2862	0.0525478
2874	0.0639094
2886	0.0690222
2898	0.0718626
2910	0.0727148
2922	0.0903254
2934	0.151962
2946	0.167869
2958	0.157927
2970	0.169005
2982	0.208487
2994	0.233483
3006	0.192296
3018	0.126399
3030	0.0991307
3042	0.0761233
3054	0.0698743
3066	0.0650456
3078	0.0582286
3090	0.0570924
3102	0.0735669
3114	0.0795318
3126	0.0732828
3138	0.0505595
3150	0.0437425
3162	0.0417542
3174	0.0391978
3186	0.0363574
3198	0.0346531
3210	0.0329489
3222	0.0309606
3234	0.0309606
3246	0.0303925
3258	0.0281202
3270	0.0281202
3282	0.0241436
3294	0.0227234
3306	0.0221553
3318	0.0190308
3330	0.0190308
3342	0.0173266
3354	0.0153383
3366	0.0156223
3378	0.0139181
3390	0.01335
3402	0.01335
3414	0.0110776
3426	0.00908934
3438	0.00852126
3450	0.00795318
3462	0.00852126
3474	0.0130659
3486	0.0215872
3498	0.0295404
3510	0.0298244
3522	0.0190308
3534	0.0102255
3546	0.0161904
3558	0.0602169
3570	0.433732
3582	0.811508
3594	0.784524
3606	0.323808
3618	0.0306765
3630	0.0198829
3642	0.00710105
3654	0.00482871
3666	0.00568084
3678	0.00823722
3690	0.00795318
3702	0.00681701
3714	0.00823722
3726	0.0105096
3738	0.00965743
3750	0.0142021
3762	0.00568084
3774	0.00312446
3786	0.00312446
3798	0.00142021
3810	0.00624892
3822	0.00795318
3834	0.00738509
3846	0.00795318
3858	0.00795318
3870	0.00823722
3882	0.0105096
3894	0.00113617
3906	0.0127819
3918	0.00710105
3930	0.00681701
3942	0.00710105
3954	0.00255638
3966	0.00369255
