Infrared Spectrum: 2-PROPENOIC ACID, 2-METHYL-
Formula: C4 H6 O2
CAS: 79-41-4
State: SOLUTION (5% IN CCl4 FOR 3800-1300, 5% IN CS2 FOR 1300-650, AND 5% IN CCl4 FOR 650-240 CM^-^1) VERSUS SOLVENT
Class: COBLENTZ III
Instrument: PERKIN-ELMER 521 (GRATING)
Instrument parameters: FILTERS AT 3150, 2500, 2000, 1150, 700, 410; GRATING CHANGES AT 2000, 630 CM^-^1
Sampling: TRANSMISSION
Path length: 0.010, 0.010, AND 0.019 CM (CsBr CELL)
Resolution: 4
Origin: DOW CORNING CORP.
1/CM	TRANSMITTANCE
228.208	0.792
237.357	0.792
246.505	0.79
255.654	0.788
264.803	0.785
273.951	0.775
283.1	0.759
292.249	0.737
301.397	0.687
310.546	0.577
319.695	0.455
328.843	0.4329
337.992	0.6599
347.141	0.693
356.289	0.653
365.438	0.718
374.587	0.796
383.735	0.773
392.884	0.79
402.033	0.807
411.181	0.821
420.33	0.815
429.479	0.81
438.627	0.806
447.776	0.799
456.925	0.795
466.073	0.801
475.222	0.814
484.371	0.821
493.52	0.832
502.668	0.83
511.817	0.812
520.966	0.786
530.114	0.734
539.263	0.683
548.412	0.537
557.56	0.297
566.709	0.514
575.858	0.686
585.006	0.691
594.155	0.325
603.304	0.584
612.452	0.767
621.601	0.792
630.75	0.796
639.898	0.777
649.047	0.711
658.196	0.745
667.344	0.814
676.493	0.836
685.642	0.844
694.79	0.844
703.939	0.854
713.088	0.851
722.236	0.845
731.385	0.847
740.534	0.845
749.682	0.84
758.831	0.815
767.98	0.804
777.128	0.786
786.277	0.759
795.426	0.7231
804.574	0.5761
813.723	0.5499
822.872	0.627
832.02	0.711
841.169	0.707
850.318	0.678
859.466	0.64
868.615	0.598
877.764	0.565
886.912	0.517
896.061	0.455
905.21	0.379
914.358	0.328
923.507	0.297
932.656	0.272
941.804	0.162
950.953	0.064
960.102	0.376
969.251	0.5568
978.399	0.664
987.548	0.719
996.697	0.709
1005.85	0.525
1014.99	0.65
1024.14	0.777
1033.29	0.788
1042.44	0.786
1051.59	0.806
1060.74	0.811
1069.89	0.822
1079.03	0.826
1088.18	0.832
1097.33	0.832
1106.48	0.817
1115.63	0.764
1124.78	0.778
1133.93	0.795
1143.08	0.784
1152.22	0.746
1161.37	0.6571
1170.52	0.5031
1179.67	0.425
1188.82	0.3591
1197.97	0.108
1207.12	0.116
1216.26	0.144
1225.41	0.255
1234.56	0.676
1243.71	0.755
1252.86	0.752
1262.01	0.729
1271.16	0.647
1280.31	0.514
1289.45	0.298
1298.6	0.104
1307.75	0.218
1316.9	0.232
1326.05	0.287
1335.2	0.5408
1344.35	0.662
1353.49	0.731
1362.64	0.731
1371.79	0.5721
1380.94	0.508
1390.09	0.646
1399.24	0.561
1408.39	0.499
1417.54	0.316
1426.68	0.187
1435.83	0.176
1444.98	0.396
1454.13	0.115
1463.28	0.5139
1472.43	0.62
1481.58	0.696
1490.72	0.796
1499.87	0.812
1509.02	0.81
1518.17	0.808
1527.32	0.803
1536.47	0.797
1545.62	0.786
1554.77	0.779
1563.91	0.775
1573.06	0.762
1582.21	0.753
1591.36	0.708
1600.51	0.651
1609.66	0.577
1618.81	0.469
1627.95	0.253
1637.1	0.083
1646.25	0.2149
1655.4	0.55
1664.55	0.504
1673.7	0.409
1682.85	0.231
1692	0.005
1701.14	0.001
1710.29	0.012
1719.44	0.207
1728.59	0.412
1737.74	0.434
1746.89	0.504
1756.04	0.616
1765.19	0.661
1774.33	0.704
1783.48	0.72
1792.63	0.73
1801.78	0.734
1810.93	0.738
1820.08	0.748
1829.23	0.756
1838.37	0.766
1847.52	0.775
1856.67	0.779
1865.82	0.779
1874.97	0.775
1884.12	0.766
1893.27	0.742
1902.42	0.724
1911.56	0.757
1920.71	0.784
1929.86	0.788
1939.01	0.793
1948.16	0.792
1957.31	0.792
1966.46	0.795
1975.6	0.792
1984.75	0.79
1993.9	0.793
2003.05	0.8035
2012.2	0.8121
2021.35	0.818
2030.5	0.8221
2039.65	0.8256
2048.79	0.826
2057.94	0.826
2067.09	0.823
2076.24	0.8182
2085.39	0.803
2094.54	0.796
2103.69	0.7872
2112.83	0.7822
2121.98	0.7845
2131.13	0.797
2140.28	0.811
2149.43	0.814
2158.58	0.814
2167.73	0.8119
2176.88	0.8047
2186.02	0.7998
2195.17	0.7963
2204.32	0.7872
2213.47	0.7818
2222.62	0.7883
2231.77	0.7929
2240.92	0.795
2250.06	0.795
2259.21	0.7941
2268.36	0.792
2277.51	0.7895
2286.66	0.7849
2295.81	0.779
2304.96	0.7739
2314.11	0.765
2323.25	0.7518
2332.4	0.748
2341.55	0.7435
2350.7	0.7354
2359.85	0.7283
2369	0.724
2378.15	0.7196
2387.29	0.711
2396.44	0.7036
2405.59	0.6939
2414.74	0.6868
2423.89	0.6717
2433.04	0.6604
2442.19	0.6527
2451.34	0.6409
2460.48	0.6196
2469.63	0.5937
2478.78	0.5751
2487.93	0.5439
2497.08	0.5171
2506.23	0.4894
2515.38	0.495
2524.52	0.5177
2533.67	0.5245
2542.82	0.5139
2551.97	0.4959
2561.12	0.4434
2570.27	0.4033
2579.42	0.3595
2588.57	0.3462
2597.71	0.3378
2606.86	0.3194
2616.01	0.3087
2625.16	0.3088
2634.31	0.3329
2643.46	0.3967
2652.61	0.4288
2661.75	0.437
2670.9	0.4199
2680.05	0.3788
2689.2	0.3497
2698.35	0.3482
2707.5	0.353
2716.65	0.3532
2725.8	0.36
2734.94	0.3567
2744.09	0.3556
2753.24	0.3683
2762.39	0.3966
2771.54	0.4036
2780.69	0.3922
2789.84	0.3726
2798.99	0.3461
2808.13	0.3079
2817.28	0.2808
2826.43	0.2628
2835.58	0.2579
2844.73	0.2434
2853.88	0.228
2863.03	0.2211
2872.17	0.2071
2881.32	0.1952
2890.47	0.1756
2899.62	0.1651
2908.77	0.158
2917.92	0.1512
2927.07	0.1356
2936.22	0.134
2945.36	0.1701
2954.51	0.17
2963.66	0.1466
2972.81	0.156
2981.96	0.1553
2991.11	0.1542
3000.26	0.1575
3009.4	0.162
3018.55	0.1686
3027.7	0.174
3036.85	0.177
3046	0.1804
3055.15	0.185
3064.3	0.19
3073.45	0.1931
3082.59	0.1986
3091.74	0.203
3100.89	0.204
3110.04	0.2115
3119.19	0.2234
3128.34	0.2399
3137.49	0.2573
3146.63	0.2825
3155.78	0.2918
3164.93	0.3147
3174.08	0.3337
3183.23	0.3564
3192.38	0.372
3201.53	0.395
3210.68	0.4191
3219.82	0.434
3228.97	0.4526
3238.12	0.4736
3247.27	0.4977
3256.42	0.5161
3265.57	0.5401
3274.72	0.5682
3283.86	0.5865
3293.01	0.6044
3302.16	0.6321
3311.31	0.649
3320.46	0.6688
3329.61	0.6929
3338.76	0.7131
3347.91	0.7301
3357.05	0.7428
3366.2	0.7634
3375.35	0.7823
3384.5	0.7981
3393.65	0.808
3402.8	0.82
3411.95	0.8288
3421.09	0.8403
3430.24	0.8467
3439.39	0.8514
3448.54	0.855
3457.69	0.8615
3466.84	0.866
3475.99	0.8695
3485.14	0.874
3494.28	0.874
3503.43	0.877
3512.58	0.8733
3521.73	0.8692
3530.88	0.8591
3540.03	0.8543
3549.18	0.8692
3558.32	0.881
3567.47	0.8889
3576.62	0.8972
3585.77	0.8992
3594.92	0.8934
3604.07	0.902
3613.22	0.899
3622.37	0.905
3631.51	0.9008
3640.66	0.906
3649.81	0.9036
3658.96	0.9022
3668.11	0.906
3677.26	0.902
3686.41	0.903
3695.56	0.905
3704.7	0.9088
3713.85	0.909
3723	0.911
3732.15	0.912
3741.3	0.913
3750.45	0.909
3759.6	0.907
3768.74	0.906
3777.89	0.906
3787.04	0.9084
3796.19	0.9092
