Infrared Spectrum: Ethanol, 2-nitro-
Formula: C 2 H 5 N O 3
CAS: 625-48-9
State: gas
Origin: Sadtler Research Labs Under US-EPA Contract
1/CM	ABSORBANCE
450	0.0145583
462	0.0166888
474	0.016452
486	0.0169847
498	0.0149134
510	0.0113034
522	0.0111258
534	0.017103
546	0.0153276
558	0.0138481
570	0.0142624
582	0.0188784
594	0.0233169
606	0.0276962
618	0.0261576
630	0.0192927
642	0.0144399
654	0.0139073
666	0.00929126
678	0.0062139
690	0.00301818
702	0.00366916
714	0.00538538
726	0.00793012
738	0.0091729
750	0.00349162
762	0.00100606
774	0.00230802
786	0.00491194
798	0.00432014
810	0.00242638
822	0.00556292
834	0.0085811
846	0.0231394
858	0.0414852
870	0.0450952
882	0.030892
894	0.0251515
906	0.0195294
918	0.00982388
930	0.00822602
942	0.0143216
954	0.0209497
966	0.022015
978	0.0162153
990	0.013493
1002	0.0132563
1014	0.0199437
1026	0.0363365
1038	0.0632634
1050	0.0960491
1062	0.137179
1074	0.169728
1086	0.153276
1098	0.0954573
1110	0.0405383
1122	0.0175173
1134	0.0117176
1146	0.0123094
1158	0.0151501
1170	0.0218966
1182	0.0341469
1194	0.0543272
1206	0.0596534
1218	0.0624941
1230	0.0594759
1242	0.0562802
1254	0.0461012
1266	0.0342652
1278	0.028939
1290	0.0252107
1302	0.0247372
1314	0.0280513
1326	0.0343836
1338	0.0533804
1350	0.0957532
1362	0.166118
1374	0.192631
1386	0.159076
1398	0.101612
1410	0.0836213
1422	0.0820235
1434	0.0675836
1446	0.045687
1458	0.0433198
1470	0.0381711
1482	0.027282
1494	0.0211273
1506	0.0269269
1518	0.0450952
1530	0.0961083
1542	0.210622
1554	0.368395
1566	0.5918
1578	0.576532
1590	0.422308
1602	0.176356
1614	0.0596534
1626	0.021364
1638	0.0120727
1650	0.0076934
1662	0.00568128
1674	0.00455686
1686	0.00544456
1698	0.00396506
1710	0.0017754
1722	0.00254474
1734	0.00526702
1746	0.00372834
1758	0.0026631
1770	0.0053262
1782	0.00272228
1794	0.00372834
1806	0.00195294
1818	0.00065098
1830	0.00153868
1842	0.00076934
1854	0.00065098
1866	0.0002959
1878	0.00017754
1890	0.00218966
1902	0.00171622
1914	0.00189376
1926	0.0023672
1938	0.00218966
1950	0.00349162
1962	0.00360998
1974	0.00313654
1986	0.0014795
1998	0.0008877
2010	0.00189376
2022	0.00136114
2034	0.00082852
2046	0.00076934
2058	0.00100606
2070	0.00153868
2082	0.00189376
2094	0.00195294
2106	0.0011836
2118	0.0014795
2130	0.00289982
2142	0.00343244
2154	0.00289982
2166	0.00319572
2178	0.00195294
2190	0.00195294
2202	0.00195294
2214	0.0014795
2226	0.00082852
2238	0.00100606
2250	0.00195294
2262	0.00224884
2274	0.00183458
2286	0.00254474
2298	0.002959
2310	0.00390588
2322	0.00420178
2334	0.0056221
2346	0.00491194
2358	0.00455686
2370	0.00869946
2382	0.00390588
2394	0.00195294
2406	0.00189376
2418	0.00301818
2430	0.0041426
2442	0.00455686
2454	0.00343244
2466	0.00248556
2478	0.00254474
2490	0.00313654
2502	0.00337326
2514	0.00289982
2526	0.0023672
2538	0.00349162
2550	0.0032549
2562	0.00289982
2574	0.00248556
2586	0.00189376
2598	0.0014795
2610	0.00248556
2622	0.00248556
2634	0.00195294
2646	0.00165704
2658	0.00195294
2670	0.00289982
2682	0.00337326
2694	0.00390588
2706	0.0053262
2718	0.00674652
2730	0.00834438
2742	0.00840356
2754	0.00704242
2766	0.00639144
2778	0.00686488
2790	0.005918
2802	0.00579964
2814	0.00568128
2826	0.00627308
2838	0.00733832
2850	0.00988306
2862	0.0145583
2874	0.0227251
2886	0.0353896
2898	0.0398873
2910	0.0401832
2922	0.0434973
2934	0.0534395
2946	0.0645654
2958	0.0659857
2970	0.054919
2982	0.0392363
2994	0.0227843
3006	0.0131971
3018	0.0100606
3030	0.0082852
3042	0.00633226
3054	0.00396506
3066	0.00343244
3078	0.00426096
3090	0.0026631
3102	0.00360998
3114	0.00248556
3126	0.00183458
3138	0.00307736
3150	0.00396506
3162	0.00189376
3174	0.00082852
3186	0.00159786
3198	0.00254474
3210	0.00242638
3222	0.00289982
3234	0.00260392
3246	0.00189376
3258	0.00313654
3270	0.00449768
3282	0.00301818
3294	0.00213048
3306	0.00360998
3318	0.00485276
3330	0.00449768
3342	0.00319572
3354	0.00343244
3366	0.00213048
3378	0.00248556
3390	0.00390588
3402	0.00189376
3414	0.00053262
3426	0.00153868
3438	0.00449768
3450	0.00408342
3462	0.00331408
3474	0.00349162
3486	0.00390588
3498	0.00526702
3510	0.00633226
3522	0.00479358
3534	0.0020713
3546	0.00491194
3558	0.00597718
3570	0.00810766
3582	0.00970552
3594	0.0156235
3606	0.0266902
3618	0.0471665
3630	0.0611329
3642	0.0582923
3654	0.0453319
3666	0.040124
3678	0.0368691
3690	0.023672
3702	0.0114809
3714	0.00816684
3726	0.00793012
3738	0.00970552
3750	0.0103565
3762	0.00686488
3774	0.005918
3786	0.00568128
3798	0.00633226
3810	0.00544456
3822	0.00437932
3834	0.00349162
3846	0.0041426
3858	0.00787094
3870	0.00881782
3882	0.005918
3894	0.00378752
3906	0.00550374
3918	0.00881782
3930	0.00929126
3942	0.0056221
3954	0.0002959
3966	0.00047344
