Infrared Spectrum: 1,3,5-Triazine
Formula: C 3 H 3 N 3
CAS: 290-87-9
State: gas
Instrument: HP-GC/MS/IRD
Origin: NIST Mass Spectrometry Data Center
1/CM	ABSORBANCE
550	0.0002408
562	0.0001892
574	0.0001161
586	0.0004042
598	0.0003483
610	0.0004042
622	0.0004902
634	0.0007267
646	0.0020425
658	0.0032938
670	0.0042097
682	0.0060028
694	0.0064758
706	0.006837
718	0.0048547
730	0.0076325
742	0.0031261
754	0.0026316
766	0.0013373
778	0.0006665
790	0.0003784
802	0.0004085
814	0.0005504
826	0.0006106
838	0.0006665
850	0.0005719
862	0.0004687
874	0.0003655
886	0.0003354
898	0.0003569
910	0.0003354
922	0.000387
934	0.0002967
946	0.0003483
958	0.0003655
970	0.0003526
982	0.0004042
994	0.0003999
1006	0.0004042
1018	0.0004386
1030	0.0004257
1042	0.0004644
1054	0.0004601
1066	0.0004429
1078	0.0004085
1090	0.0003225
1102	0.0002881
1114	0.000301
1126	0.0002451
1138	0.0002408
1150	0.000344
1162	0.0002924
1174	0.0003569
1186	0.000258
1198	0.0002279
1210	1.29e-05
1222	3.87e-05
1234	6.02e-05
1246	7.31e-05
1258	0.000129
1270	0.000129
1282	0.0001935
1294	0.0002021
1306	0.0002064
1318	0.0002236
1330	0.0002881
1342	0.0003612
1354	0.0007267
1366	0.0021715
1378	0.00903
1390	0.0220805
1402	0.0257312
1414	0.0240843
1426	0.019737
1438	0.0050181
1450	0.0013244
1462	0.0007654
1474	0.0008256
1486	0.0013029
1498	0.0019866
1510	0.0040592
1522	0.0114337
1534	0.0304225
1546	0.043
1558	0.0410349
1570	0.0178622
1582	0.0040721
1594	0.0013502
1606	0.0007525
1618	0.0005504
1630	0.0005805
1642	0.0006192
1654	0.0005289
1666	0.0006106
1678	0.000387
1690	0.0003096
1702	0.0002408
1714	0.0002709
1726	0.0003182
1738	0.000516
1750	0.0007439
1762	0.0007912
1774	0.0008256
1786	0.0007439
1798	0.0005934
1810	0.0003182
1822	0.0002666
1834	0.0002924
1846	0.0003784
1858	0.0002881
1870	0.0002752
1882	0.0001892
1894	0.0002236
1906	0.0002881
1918	0.0004644
1930	0.000516
1942	0.0004558
1954	0.0003913
1966	0.0001935
1978	0.0001978
1990	0.0001763
2002	0.0002709
2014	0.0003311
2026	0.0003784
2038	0.000344
2050	0.0002881
2062	0.0001806
2074	0.0002107
2086	0.0001677
2098	0.0001634
2110	0.0001376
2122	0.0001032
2134	0.0001161
2146	0.0001204
2158	0.000129
2170	0.0001247
2182	0.0001419
2194	0.0001161
2206	0.0001505
2218	0.0002021
2230	0.0002967
2242	0.0004386
2254	0.0004902
2266	0.0005504
2278	0.0004085
2290	0.000387
2302	0.000172
2314	0.0002064
2326	0.0002408
2338	0.0003053
2350	0.0002795
2362	0.0002752
2374	0.0003311
2386	0.0002494
2398	0.0002924
2410	0.0003096
2422	0.000215
2434	0.0001634
2446	0.0001204
2458	0.0001634
2470	0.0001892
2482	0.0002408
2494	0.0002666
2506	0.0003956
2518	0.0005203
2530	0.0005805
2542	0.0005547
2554	0.000516
2566	0.0005074
2578	0.0004945
2590	0.0003139
2602	0.000215
2614	0.0001978
2626	0.0001892
2638	0.0002107
2650	0.0001935
2662	0.0001505
2674	0.0002322
2686	0.000258
2698	0.0002365
2710	0.0001978
2722	0.0002279
2734	0.0002279
2746	0.0002408
2758	0.000172
2770	0.0002408
2782	0.0002322
2794	0.0001591
2806	0.0002279
2818	0.000215
2830	0.0002021
2842	0.0002365
2854	0.0002451
2866	0.0003311
2878	0.0003698
2890	0.0005074
2902	0.0006235
2914	0.0007181
2926	0.0006665
2938	0.0005418
2950	0.0005547
2962	0.0004773
2974	0.00043
2986	0.0003483
2998	0.000387
3010	0.0006923
3022	0.0016426
3034	0.0033497
3046	0.0044247
3058	0.0049149
3070	0.0049493
3082	0.0028251
3094	0.0017974
3106	0.0016254
3118	0.0010836
3130	0.0008557
3142	0.0005504
3154	0.0002322
3166	0.0002021
3178	0.0002451
3190	0.0001978
3202	0.0002279
3214	0.0002021
3226	0.0002795
3238	0.0002021
3250	0.0002494
3262	0.0002795
3274	0.0002795
3286	0.0002365
3298	0.0002365
3310	0.000258
3322	0.000215
3334	0.0003225
3346	0.0002537
3358	0.0002451
3370	0.0002021
3382	0.0002494
3394	0.0002322
3406	0.0002752
3418	0.0002451
3430	0.0002279
3442	0.000344
3454	0.0002752
3466	0.000301
3478	0.0002279
3490	0.0001591
3502	0.0002322
3514	0.0001634
3526	0.0002365
3538	0.0002279
3550	0.0002193
3562	0.0001892
3574	0.0002236
3586	0.0002537
3598	0.000172
3610	0.0002451
3622	0.0002494
3634	0.0002322
3646	0.0003096
3658	0.0002236
3670	0.0003354
3682	0.0003225
3694	0.0002408
3706	0.0003096
3718	0.0002881
3730	0.0002279
3742	0.0002967
3754	0.0002967
3766	0.000215
3778	0.000258
3790	0.0002838
3802	0.0004042
3814	0.0002881
3826	0.0003182
3838	0.0001935
