Infrared Spectrum: Formamide, N-methyl-
Formula: C 2 H 5 N O
CAS: 123-39-7
State: gas
Origin: Sadtler Research Labs Under US-EPA Contract
1/CM	ABSORBANCE
450	0.0257572
462	0.0312292
474	0.0382489
486	0.0322794
498	0.0325005
510	0.0310082
522	0.0236016
534	0.0189034
546	0.0274707
558	0.0154764
570	0.026531
582	0.0290183
594	0.019843
606	0.020451
618	0.0212248
630	0.00381384
642	0.00519566
654	0.00806986
666	0.0026531
678	0.00436657
690	0.00912005
702	0.00690912
714	0.00851204
726	0.0118284
738	0.0114968
750	0.010723
762	0.0136524
774	0.0134313
786	0.0181848
798	0.0167477
810	0.0150895
822	0.018019
834	0.0134866
846	0.011331
858	0.0104466
870	0.0096175
882	0.00547203
894	0.0120495
906	0.0143157
918	0.0229936
930	0.0367565
942	0.0355958
954	0.0338823
966	0.0306765
978	0.016803
990	0.013155
1002	0.0160844
1014	0.016195
1026	0.0126575
1038	0.0112204
1050	0.0116626
1062	0.00945168
1074	0.0109441
1086	0.00950696
1098	0.0105019
1110	0.0121601
1122	0.0114968
1134	0.0171346
1146	0.0227725
1158	0.02935
1170	0.0488613
1182	0.0955117
1194	0.11027
1206	0.107782
1218	0.105903
1230	0.0514039
1242	0.0286314
1254	0.0246518
1266	0.0326663
1278	0.0307871
1290	0.034822
1302	0.0206721
1314	0.00801458
1326	0.00823568
1338	0.00834622
1350	0.0116073
1362	0.0176874
1374	0.0250939
1386	0.0263652
1398	0.0350984
1410	0.0416206
1422	0.0388569
1434	0.0453791
1446	0.0490824
1458	0.0638956
1470	0.0872761
1482	0.124198
1494	0.136358
1506	0.134921
1518	0.106511
1530	0.0659407
1542	0.0412889
1554	0.022275
1566	0.0148132
1578	0.0123812
1590	0.0075724
1602	0.00795931
1614	0.00812513
1626	0.00663276
1638	0.00773822
1650	0.00912005
1662	0.0109441
1674	0.0212801
1686	0.0443842
1698	0.0966725
1710	0.268406
1722	0.488834
1734	0.514315
1746	0.541675
1758	0.363752
1770	0.0789298
1782	0.0275812
1794	0.0137077
1806	0.00641167
1818	0.00442184
1830	0.00375856
1842	0.00292947
1854	0.00392438
1866	0.00386911
1878	0.0040902
1890	0.00420075
1902	0.00420075
1914	0.00182401
1926	0.00326111
1938	0.00243201
1950	0.00171346
1962	0.0028742
1974	0.00226619
1986	0.0020451
1998	0.00292947
2010	0.00309529
2022	0.00116073
2034	0.00304002
2046	0.00176874
2058	0.00132655
2070	0.00276365
2082	0.00270838
2094	0.00270838
2106	0.00392438
2118	0.00447711
2130	0.00453239
2142	0.00502984
2154	0.00397966
2166	0.00342693
2178	0.00254256
2190	0.00254256
2202	0.00226619
2214	0.00237674
2226	0.0014371
2238	0.0014371
2250	0.00254256
2262	0.000994914
2274	0.00254256
2286	0.00281892
2298	0.00193455
2310	0.00259783
2322	0.00558257
2334	0.00414548
2346	0.00292947
2358	0.00475348
2370	0.00359274
2382	0.00270838
2394	0.00127128
2406	0.00232147
2418	0.00270838
2430	0.00442184
2442	0.00425602
2454	0.00364802
2466	0.00403493
2478	0.00243201
2490	0.00243201
2502	0.00221092
2514	0.00210037
2526	0.00210037
2538	0.00320583
2550	0.0028742
2562	0.00353747
2574	0.00304002
2586	0.0026531
2598	0.00292947
2610	0.00198983
2622	0.0020451
2634	0.00342693
2646	0.00442184
2658	0.00320583
2670	0.00558257
2682	0.00608003
2694	0.00596948
2706	0.0084015
2718	0.0114968
2730	0.0207826
2742	0.0216117
2754	0.0224961
2766	0.0261994
2778	0.0194008
2790	0.0183506
2802	0.0270838
2814	0.0474242
2826	0.0851757
2838	0.0982201
2850	0.0999336
2862	0.105406
2874	0.0694782
2886	0.0478664
2898	0.040902
2910	0.040902
2922	0.0459319
2934	0.0509617
2946	0.0527304
2958	0.0508512
2970	0.0452133
2982	0.0337718
2994	0.0265863
3006	0.0197325
3018	0.0187375
3030	0.017411
3042	0.0134866
3054	0.0122153
3066	0.0127128
3078	0.00978332
3090	0.00801458
3102	0.00934114
3114	0.00679858
3126	0.00646694
3138	0.00630112
3150	0.0040902
3162	0.00276365
3174	0.00326111
3186	0.00165819
3198	0.00198983
3210	0.00342693
3222	0.00171346
3234	0.00353747
3246	0.00304002
3258	0.00337165
3270	0.00270838
3282	0.00270838
3294	0.00154764
3306	0.00193455
3318	0.00165819
3330	0.000718549
3342	0.00381384
3354	0.00331638
3366	0.0026531
3378	0.00414548
3390	0.00442184
3402	0.00270838
3414	0.0061353
3426	0.00928586
3438	0.0120495
3450	0.0194008
3462	0.0284103
3474	0.0334402
3486	0.0352089
3498	0.03239
3510	0.0228277
3522	0.0122153
3534	0.00464293
3546	0.0020451
3558	0.00298474
3570	0.00326111
3582	0.00254256
3594	0.00392438
3606	0.00397966
3618	0.00309529
3630	0.00508512
3642	0.0020451
3654	0.00298474
3666	0.00215565
3678	0.00254256
3690	0.00276365
3702	0.00375856
3714	0.00298474
3726	0.00243201
3738	0.00403493
3750	0.00221092
3762	0.00182401
3774	0.0014371
3786	0.000718549
3798	0.000718549
3810	0.00237674
3822	0.00243201
3834	0.00160292
3846	0.0034822
3858	0.00215565
3870	0.00176874
3882	0.00160292
3894	0.000718549
3906	0.000718549
3918	0.00127128
3930	0.00226619
3942	0.00420075
3954	0.000331638
3966	0.000718549
