Infrared Spectrum: ETHANE, 1,2-DIBROMO-1,1-DICHLORO-
Formula: C2 H2 Br2 Cl2
CAS: 75-81-0
State: SOLUTION (10% IN CCl4 FOR 3800-1333, AND 10% IN CS2 FOR 1333-440 CM^-^1)
Class: COBLENTZ III
Instrument: DOW KBr FOREPRISM-GRATING
Instrument parameters: BLAZED AT 3.5, 12.0, 20.0 MICRON, CHANGED AT 5.0, 7.5, 14.9 MICRON
Sampling: TRANSMISSION
Path length: 0.011, 0.011 CM
Resolution: 4
Origin: DOW CHEMICAL COMPANY
1/CM	TRANSMITTANCE
441.762	0.848
450.462	0.854
459.163	0.862
467.863	0.861
476.564	0.853
485.264	0.748
493.964	0.848
502.665	0.915
511.365	0.926
520.065	0.93
528.766	0.842
537.466	0.848
546.167	0.946
554.867	0.956
563.567	0.953
572.268	0.956
580.968	0.955
589.669	0.951
598.369	0.944
607.069	0.91
615.77	0.816
624.47	0.477
633.17	0.738
641.871	0.797
650.571	0.672
659.272	0.219
667.972	0.525
676.672	0.258
685.373	0.731
694.073	0.802
702.774	0.668
711.474	0.268
720.174	0.816
728.875	0.795
737.575	0.563
746.275	0.578
754.976	0.795
763.676	0.764
772.377	0.533
781.077	0.389
789.777	0.782
798.478	0.902
807.178	0.929
815.879	0.949
824.579	0.946
833.279	0.933
841.98	0.87
850.68	0.776
859.38	0.778
868.081	0.798
876.781	0.851
885.482	0.877
894.182	0.835
902.882	0.549
911.583	0.276
920.283	0.842
928.984	0.918
937.684	0.956
946.384	0.964
955.085	0.97
963.785	0.982
972.485	0.982
981.186	0.983
989.886	0.979
998.587	0.978
1007.29	0.979
1015.99	0.971
1024.69	0.955
1033.39	0.936
1042.09	0.831
1050.79	0.783
1059.49	0.955
1068.19	0.964
1076.89	0.972
1085.59	0.982
1094.29	0.98
1102.99	0.986
1111.69	0.991
1120.39	0.99
1129.09	0.989
1137.79	0.978
1146.49	0.972
1155.19	0.963
1163.89	0.937
1172.59	0.775
1181.29	0.744
1190	0.956
1198.7	0.964
1207.4	0.976
1216.1	0.957
1224.8	0.869
1233.5	0.536
1242.2	0.897
1250.9	0.946
1259.6	0.959
1268.3	0.968
1277	0.971
1285.7	0.967
1294.4	0.976
1303.1	0.967
1311.8	0.968
1320.5	0.971
1329.2	0.968
1337.9	0.976
1346.6	0.976
1355.3	0.964
1364	0.961
1372.7	0.965
1381.4	0.974
1390.1	0.976
1398.8	0.963
1407.5	0.877
1416.21	0.911
1424.91	0.949
1433.61	0.959
1442.31	0.965
1451.01	0.953
1459.71	0.953
1468.41	0.938
1477.11	0.926
1485.81	0.912
1494.51	0.881
1503.21	0.825
1511.91	0.76
1520.61	0.707
1529.31	0.668
1538.01	0.575
1546.71	0.511
1555.41	0.56
1564.11	0.602
1572.81	0.666
1581.51	0.689
1590.21	0.731
1598.91	0.801
1607.61	0.891
1616.31	0.923
1625.01	0.929
1633.71	0.923
1642.42	0.921
1651.12	0.946
1659.82	0.955
1668.52	0.965
1677.22	0.968
1685.92	0.975
1694.62	0.97
1703.32	0.975
1712.02	0.974
1720.72	0.979
1729.42	0.978
1738.12	0.974
1746.82	0.98
1755.52	0.98
1764.22	0.974
1772.92	0.987
1781.62	0.979
1790.32	0.975
1799.02	0.975
1807.72	0.975
1816.42	0.976
1825.12	0.98
1833.82	0.972
1842.52	0.978
1851.22	0.974
1859.92	0.971
1868.63	0.976
1877.33	0.979
1886.03	0.976
1894.73	0.983
1903.43	0.978
1912.13	0.979
1920.83	0.985
1929.53	0.985
1938.23	0.979
1946.93	0.983
1955.63	0.982
1964.33	0.98
1973.03	0.975
1981.73	0.979
1990.43	1
1999.13	0.991
2007.83	0.993
2016.53	0.99
2025.23	0.9945
2033.93	1.0035
2042.63	0.9976
2051.33	0.993
2060.03	0.989
2068.73	0.99
2077.43	0.993
2086.13	0.9841
2094.84	0.987
2103.54	0.9929
2112.24	0.9941
2120.94	0.9919
2129.64	1.0005
2138.34	0.9927
2147.04	0.989
2155.74	0.998
2164.44	0.9966
2173.14	0.994
2181.84	0.9977
2190.54	0.9923
2199.24	0.9944
2207.94	0.9946
2216.64	0.989
2225.34	0.993
2234.04	0.993
2242.74	0.9906
2251.44	0.9826
2260.14	0.9824
2268.84	0.9826
2277.54	0.976
2286.24	0.971
2294.94	0.968
2303.64	0.9622
2312.34	0.97
2321.05	0.9733
2329.75	0.9898
2338.45	0.9917
2347.15	0.9746
2355.85	0.9688
2364.55	0.976
2373.25	0.9842
2381.95	0.9912
2390.65	0.9928
2399.35	0.99
2408.05	0.99
2416.75	0.9896
2425.45	0.9918
2434.15	0.9973
2442.85	0.987
2451.55	0.9878
2460.25	0.9856
2468.95	0.9864
2477.65	0.9922
2486.35	0.9942
2495.05	0.991
2503.75	0.993
2512.45	0.9937
2521.15	0.9999
2529.85	0.995
2538.55	1
2547.26	0.9936
2555.96	0.991
2564.66	0.991
2573.36	0.9906
2582.06	0.9864
2590.76	0.9904
2599.46	0.997
2608.16	0.9917
2616.86	0.994
2625.56	0.9977
2634.26	0.9867
2642.96	0.985
2651.66	0.9907
2660.36	0.99
2669.06	0.993
2677.76	0.991
2686.46	0.9947
2695.16	0.9937
2703.86	0.9924
2712.56	0.99
2721.26	0.991
2729.96	0.991
2738.66	0.991
2747.36	0.994
2756.06	0.9967
2764.76	0.9933
2773.46	0.9952
2782.17	0.9924
2790.87	0.9933
2799.57	0.9958
2808.27	0.985
2816.97	0.9903
2825.67	0.993
2834.37	0.9903
2843.07	0.9916
2851.77	0.9924
2860.47	0.99
2869.17	0.9903
2877.87	0.994
2886.57	0.994
2895.27	0.995
2903.97	0.9929
2912.67	0.987
2921.37	0.989
2930.07	0.989
2938.77	0.989
2947.47	0.983
2956.17	0.9689
2964.87	0.8975
2973.57	0.9337
2982.27	0.9793
2990.97	0.9823
2999.67	0.9875
3008.38	0.9883
3017.08	0.9723
3025.78	0.9237
3034.48	0.9492
3043.18	0.977
3051.88	0.985
3060.58	0.9862
3069.28	0.9893
3077.98	0.991
3086.68	0.9938
3095.38	0.993
3104.08	0.9938
3112.78	0.991
3121.48	0.995
3130.18	0.993
3138.88	0.995
3147.58	0.993
3156.28	0.991
3164.98	0.99
3173.68	0.989
3182.38	0.983
3191.08	0.9828
3199.78	0.9788
3208.48	0.978
3217.18	0.976
3225.88	0.975
3234.59	0.974
3243.29	0.9666
3251.99	0.964
3260.69	0.964
3269.39	0.9568
3278.09	0.956
3286.79	0.9546
3295.49	0.9558
3304.19	0.9488
3312.89	0.9482
3321.59	0.9445
3330.29	0.944
3338.99	0.9417
3347.69	0.9355
3356.39	0.9298
3365.09	0.9247
3373.79	0.9175
3382.49	0.9104
3391.19	0.9102
3399.89	0.9083
3408.59	0.914
3417.29	0.914
3425.99	0.9149
3434.69	0.9221
3443.39	0.933
3452.09	0.9343
3460.8	0.9443
3469.5	0.949
3478.2	0.9521
3486.9	0.956
3495.6	0.956
3504.3	0.96
3513	0.9631
3521.7	0.9684
3530.4	0.979
3539.1	0.975
3547.8	0.979
3556.5	0.9791
3565.2	0.9851
3573.9	0.979
3582.6	0.989
3591.3	0.986
3600	0.985
3608.7	0.989
3617.4	0.987
3626.1	0.991
3634.8	0.9982
3643.5	1
3652.2	0.997
3660.9	0.9971
3669.6	1.0009
3678.3	0.9979
3687.01	0.987
3695.71	0.9872
3704.41	0.9939
3713.11	0.9945
3721.81	0.9899
3730.51	0.991
3739.21	0.9931
3747.91	0.9981
3756.61	0.9979
3765.31	0.994
3774.01	0.9951
3782.71	1.0011
3791.41	1.0061
