Infrared Spectrum: Methane, fluorotrichloro-
Formula: C Cl3 F
CAS: 75-69-4
State: GAS (40 mmHg, N2 ADDED, TOTAL PRESSURE 600 mmHg)
Class: COBLENTZ
Instrument: DOW KBr FOREPRISM-GRATING
Instrument parameters: GRATING CHANGED AT 5.0, 7.5, 15.0 MICRON
Sampling: TRANSMISSION
Path length: 5 CM
Resolution: 2
Origin: DOW CHEMICAL COMPANY
1/CM	TRANSMITTANCE
453	0.8531
462	0.8551
471	0.8547
480	0.853
489	0.8509
498	0.8495
507	0.8515
516	0.8489
525	0.8404
534	0.8178
543	0.8369
552	0.8531
561	0.8684
570	0.8709
579	0.8714
588	0.8722
597	0.8729
606	0.8738
615	0.8712
624	0.8787
633	0.8754
642	0.8691
651	0.862
660	0.8645
669	0.649
678	0.8529
687	0.8597
696	0.8693
705	0.8751
714	0.8734
723	0.8764
732	0.8632
741	0.8489
750	0.8556
759	0.8644
768	0.8533
777	0.8147
786	0.7714
795	0.702
804	0.7439
813	0.6062
822	0.4071
831	0.0136
840	0.003
849	0.0053
858	0.25
867	0.8218
876	0.8557
885	0.853
894	0.8642
903	0.8595
912	0.7702
921	0.5961
930	0.513
939	0.6401
948	0.8729
957	0.8947
966	0.897
975	0.8965
984	0.8959
993	0.8959
1002	0.8926
1011	0.8916
1020	0.8914
1029	0.8884
1038	0.8647
1047	0.8132
1056	0.5111
1065	0.0808
1074	0.0281
1083	0.0189
1092	0.1341
1101	0.396
1110	0.7716
1119	0.8811
1128	0.889
1137	0.8827
1146	0.8585
1155	0.8573
1164	0.8753
1173	0.8818
1182	0.8913
1191	0.8919
1200	0.8991
1209	0.9044
1218	0.8991
1227	0.8909
1236	0.8818
1245	0.8781
1254	0.8825
1263	0.8871
1272	0.8886
1281	0.8861
1290	0.8817
1299	0.8782
1308	0.8756
1317	0.8743
1326	0.875
1335	0.8766
1344	0.8812
1353	0.8869
1362	0.8814
1371	0.8389
1380	0.827
1389	0.8628
1398	0.8745
1407	0.8753
1416	0.8783
1425	0.8738
1434	0.8763
1443	0.8761
1452	0.8784
1461	0.8757
1470	0.8749
1479	0.8743
1488	0.877
1497	0.8742
1506	0.8813
1515	0.8765
1524	0.8765
1533	0.876
1542	0.8811
1551	0.8748
1560	0.8824
1569	0.8709
1578	0.8727
1587	0.8694
1596	0.8675
1605	0.8674
1614	0.8678
1623	0.8686
1632	0.8701
1641	0.8686
1650	0.8666
1659	0.8595
1668	0.8501
1677	0.8433
1686	0.8432
1695	0.848
1704	0.8589
1713	0.8746
1722	0.8725
1731	0.8816
1740	0.8747
1749	0.8706
1758	0.8695
1767	0.869
1776	0.8656
1785	0.8682
1794	0.8695
1803	0.8694
1812	0.8688
1821	0.8679
1830	0.8674
1839	0.8669
1848	0.8666
1857	0.8663
1866	0.8666
1875	0.8671
1884	0.8673
1893	0.8675
1902	0.8673
1911	0.8669
1920	0.8666
1929	0.8665
1938	0.8665
1947	0.8665
1956	0.8666
1965	0.8667
1974	0.8674
1983	0.868
1992	0.869
2001	0.8695
2010	0.8676
2019	0.8648
2028	0.864
2037	0.8641
2046	0.8641
2055	0.8638
2064	0.8635
2073	0.8633
2082	0.8634
2091	0.8633
2100	0.863
2109	0.8627
2118	0.8561
2127	0.8329
2136	0.8035
2145	0.7948
2154	0.8228
2163	0.8509
2172	0.8616
2181	0.8653
2190	0.8666
2199	0.867
2208	0.8674
2217	0.867
2226	0.8666
2235	0.8664
2244	0.866
2253	0.8653
2262	0.8643
2271	0.8633
2280	0.8631
2289	0.8575
2298	0.8441
2307	0.8304
2316	0.8191
2325	0.8205
2334	0.8267
2343	0.7979
2352	0.8044
2361	0.8235
2370	0.8384
2379	0.8449
2388	0.8689
2397	0.8716
2406	0.8724
2415	0.8724
2424	0.8724
2433	0.8723
2442	0.8722
2451	0.8721
2460	0.8717
2469	0.8713
2478	0.871
2487	0.8708
2496	0.8707
2505	0.8706
2514	0.871
2523	0.8713
2532	0.8717
2541	0.872
2550	0.8723
2559	0.8725
2568	0.8727
2577	0.8729
2586	0.8731
2595	0.8731
2604	0.8731
2613	0.8731
2622	0.8731
2631	0.8731
2640	0.873
2649	0.873
2658	0.8729
2667	0.8729
2676	0.8728
2685	0.8727
2694	0.8726
2703	0.8725
2712	0.8724
2721	0.8723
2730	0.8722
2739	0.8721
2748	0.8721
2757	0.872
2766	0.872
2775	0.8719
2784	0.8719
2793	0.8719
2802	0.8719
2811	0.8719
2820	0.8719
2829	0.8719
2838	0.8719
2847	0.8719
2856	0.8719
2865	0.872
2874	0.872
2883	0.872
2892	0.872
2901	0.872
2910	0.872
2919	0.872
2928	0.8721
2937	0.8722
2946	0.8723
2955	0.8724
2964	0.8725
2973	0.8722
2982	0.872
2991	0.8717
3000	0.8712
3009	0.8706
3018	0.8707
3027	0.8707
3036	0.8707
3045	0.871
3054	0.8713
3063	0.8716
3072	0.8719
3081	0.8717
3090	0.8715
3099	0.8713
3108	0.8712
3117	0.871
3126	0.8708
3135	0.8706
3144	0.8705
3153	0.8704
3162	0.8703
3171	0.8701
3180	0.87
3189	0.8698
3198	0.8691
3207	0.8685
3216	0.8683
3225	0.8689
3234	0.8695
3243	0.8699
3252	0.8704
3261	0.8708
3270	0.8712
3279	0.8715
3288	0.8715
3297	0.8715
3306	0.8716
3315	0.8717
3324	0.8718
3333	0.8719
3342	0.872
3351	0.872
3360	0.872
3369	0.872
3378	0.872
3387	0.8721
3396	0.8724
3405	0.8726
3414	0.8729
3423	0.8732
3432	0.8735
3441	0.8738
3450	0.8742
3459	0.8745
3468	0.8749
3477	0.8752
3486	0.8754
3495	0.8755
3504	0.8756
3513	0.8756
3522	0.8754
3531	0.8752
3540	0.875
3549	0.8745
3558	0.8737
3567	0.873
3576	0.8727
3585	0.8727
3594	0.8735
3603	0.8724
3612	0.8695
3621	0.8712
3630	0.8766
3639	0.8774
3648	0.876
3657	0.8783
3666	0.8745
3675	0.8667
3684	0.8635
3693	0.8695
3702	0.8705
3711	0.8688
3720	0.8743
3729	0.8824
3738	0.8858
3747	0.8789
3756	0.878
3765	0.878
3774	0.8786
3783	0.8795
