Infrared Spectrum: Trichloromonofluoromethane
Formula: C Cl 3 F
CAS: 75-69-4
State: gas
Origin: Sadtler Research Labs Under US-EPA Contract
1/CM	ABSORBANCE
450	0.00662327
462	0.00408352
474	0.000896382
486	0.00313734
498	0.00333653
510	0.00552769
522	0.00348593
534	0.00632447
546	0.0050795
558	0.00587628
570	0.00348593
582	0.00358553
594	0.0048803
606	0.0049799
618	0.00448191
630	0.00308754
642	0.00323694
654	0.00343613
666	0.0048803
678	0.00378472
690	0.00368513
702	0.00308754
714	0.00373493
726	0.00433251
738	0.0049301
750	0.0051791
762	0.0051293
774	0.00672287
786	0.00891402
798	0.0111052
810	0.0152883
822	0.0493508
834	0.209006
846	0.49799
858	0.0921779
870	0.00836623
882	0.00423292
894	0.00443211
906	0.0047807
918	0.00846583
930	0.0183758
942	0.0144417
954	0.00418312
966	0.00388432
978	0.00333653
990	0.00313734
1002	0.00358553
1014	0.00373493
1026	0.00368513
1038	0.00632447
1050	0.0151887
1062	0.0567709
1074	0.0984526
1086	0.117526
1098	0.0497492
1110	0.0107566
1122	0.00388432
1134	0.00328673
1146	0.00338633
1158	0.00308754
1170	0.00303774
1182	0.00393412
1194	0.00547789
1206	0.00562729
1218	0.00622488
1230	0.00607548
1242	0.00453171
1254	0.00368513
1266	0.00293814
1278	0.00298794
1290	0.00258955
1302	0.00313734
1314	0.00308754
1326	0.00333653
1338	0.00348593
1350	0.0050795
1362	0.00572689
1374	0.00677266
1386	0.00547789
1398	0.00313734
1410	0.00308754
1422	0.00313734
1434	0.00293814
1446	0.00338633
1458	0.00318714
1470	0.00288834
1482	0.00293814
1494	0.00244015
1506	0.00278874
1518	0.00244015
1530	0.00239035
1542	0.00268915
1554	0.00248995
1566	0.00273895
1578	0.00258955
1590	0.00219116
1602	0.00219116
1614	0.00224096
1626	0.00263935
1638	0.00263935
1650	0.00273895
1662	0.00308754
1674	0.00338633
1686	0.00388432
1698	0.00433251
1710	0.0049301
1722	0.00597588
1734	0.00642407
1746	0.00642407
1758	0.00527869
1770	0.00373493
1782	0.00288834
1794	0.00253975
1806	0.00234055
1818	0.00194216
1830	0.00194216
1842	0.00214136
1854	0.00194216
1866	0.00184256
1878	0.00209156
1890	0.00179276
1902	0.00184256
1914	0.00169317
1926	0.00189236
1938	0.00199196
1950	0.00199196
1962	0.00159357
1974	0.00189236
1986	0.00194216
1998	0.00184256
2010	0.00189236
2022	0.00194216
2034	0.00184256
2046	0.00164337
2058	0.00164337
2070	0.00194216
2082	0.00149397
2094	0.00174296
2106	0.00184256
2118	0.00234055
2130	0.00288834
2142	0.00363533
2154	0.00268915
2166	0.00214136
2178	0.00149397
2190	0.00149397
2202	0.00154377
2214	0.00139437
2226	0.00134457
2238	0.00144417
2250	0.00139437
2262	0.00144417
2274	0.00149397
2286	0.00144417
2298	0.00169317
2310	0.00189236
2322	0.00189236
2334	0.00229075
2346	0.00199196
2358	0.00263935
2370	0.000746985
2382	0.00124498
2394	0.00109558
2406	0.00114538
2418	0.00134457
2430	0.00109558
2442	0.000846583
2454	0.00104578
2466	0.00104578
2478	0.000896382
2490	0.00109558
2502	0.00114538
2514	0.000946181
2526	0.000796784
2538	0.000896382
2550	0.00104578
2562	0.000746985
2574	0.000946181
2586	0.000597588
2598	0.00049799
2610	0.000597588
2622	0.000647387
2634	0.000846583
2646	0.000746985
2658	0.00049799
2670	0.000547789
2682	0.000398392
2694	0.000647387
2706	0.000298794
2718	0.000448191
2730	0.000697186
2742	0.000448191
2754	0.000348593
2766	0.000448191
2778	0.000348593
2790	0.000348593
2802	0.000199196
2814	0.000547789
2826	0.000398392
2838	0.000448191
2850	0.000647387
2862	0.000398392
2874	0.000448191
2886	0.000597588
2898	0.000348593
2910	0.000647387
2922	0.000846583
2934	0.000896382
2946	0.000547789
2958	0.00104578
2970	0.00159357
2982	0.00104578
2994	0.000796784
3006	0.00109558
3018	0.00099598
3030	0.00104578
3042	0.000896382
3054	0.00104578
3066	0.000796784
3078	0.00049799
3090	0.00099598
3102	0.00049799
3114	0.000796784
3126	0.000448191
3138	0.000597588
3150	0.000348593
3162	0.000448191
3174	0.000547789
3186	0.00104578
3198	0.000647387
3210	0.00119518
3222	0.000896382
3234	0.000746985
3246	0.000796784
3258	0.000398392
3270	0.000298794
3282	0.000597588
3294	0.000796784
3306	0.000647387
3318	0.000746985
3330	0.000199196
3342	0.00119518
3354	0.000746985
3366	0.000647387
3378	0.000846583
3390	0.00134457
3402	0.000846583
3414	0.000746985
3426	0.00114538
3438	0.000946181
3450	0.000946181
3462	0.000597588
3474	0.00134457
3486	0.000896382
3498	0.00129477
3510	0.000348593
3522	0.000448191
3534	0.00109558
3546	0.000647387
3558	0.000846583
3570	0.00049799
3582	0.00129477
3594	0.000946181
3606	0.000647387
3618	0.000796784
3630	0.000796784
3642	0.00104578
3654	0.000697186
3666	0.00159357
3678	0.00049799
3690	0.00144417
3702	0.00104578
3714	0.000746985
3726	0.000398392
3738	0.000796784
3750	0.00144417
3762	0.00174296
3774	0.00129477
3786	0.00144417
3798	0.00139437
3810	0.000149397
3822	0.00174296
3834	0.00149397
3846	0.000896382
3858	0.000448191
3870	0.00139437
3882	0.00194216
3894	0.000398392
3906	0.00149397
3918	0.00124498
3930	0.00109558
3942	0.000846583
3954	0.00169317
3966	0.000597588
