Infrared Spectrum: 1-Amino-2-butanol
Formula: C 4 H 11 N O
CAS: 13552-21-1
State: gas
Origin: EPA-IR VAPOR PHASE LIBRARY
1/CM	ABSORBANCE
551.7	0.00553
563.274	0.00544
574.848	0.00533
586.421	0.00537
597.995	0.0055
609.569	0.00559
621.143	0.00548
632.717	0.00578
644.291	0.00554
655.864	0.00567
667.438	0.00586
679.012	0.00589
690.586	0.00626
702.16	0.00689
713.734	0.00748
725.307	0.00819
736.881	0.00914
748.455	0.0104
760.029	0.01171
771.603	0.01254
783.177	0.01269
794.75	0.0117
806.324	0.01021
817.898	0.0089
829.472	0.00844
841.046	0.00836
852.619	0.00816
864.193	0.00765
875.767	0.0073
887.341	0.00728
898.915	0.00754
910.489	0.00763
922.062	0.00753
933.636	0.00744
945.21	0.0078
956.784	0.00885
968.358	0.01009
979.932	0.01069
991.505	0.01026
1003.08	0.00944
1014.65	0.0089
1026.23	0.00882
1037.8	0.00932
1049.37	0.01044
1060.95	0.01122
1072.52	0.01098
1084.1	0.00976
1095.67	0.00856
1107.24	0.00775
1118.82	0.00733
1130.39	0.0067
1141.97	0.00606
1153.54	0.00538
1165.11	0.00527
1176.69	0.00522
1188.26	0.00539
1199.83	0.00572
1211.41	0.00621
1222.98	0.00681
1234.56	0.00734
1246.13	0.00756
1257.7	0.0074
1269.28	0.0072
1280.85	0.00713
1292.42	0.00701
1304	0.00693
1315.57	0.00655
1327.15	0.00626
1338.72	0.00632
1350.29	0.0067
1361.87	0.00726
1373.44	0.00775
1385.02	0.0078
1396.59	0.00727
1408.16	0.0064
1419.74	0.00572
1431.31	0.00547
1442.88	0.00589
1454.46	0.00671
1466.03	0.00675
1477.61	0.00584
1489.18	0.00468
1500.75	0.004
1512.33	0.00371
1523.9	0.00349
1535.48	0.00337
1547.05	0.00335
1558.62	0.00339
1570.2	0.00354
1581.77	0.00381
1593.34	0.00433
1604.92	0.00518
1616.49	0.00606
1628.07	0.0061
1639.64	0.00519
1651.21	0.00413
1662.79	0.00351
1674.36	0.00325
1685.93	0.00311
1697.51	0.00303
1709.08	0.00303
1720.66	0.00302
1732.23	0.00303
1743.8	0.00301
1755.38	0.00295
1766.95	0.00296
1778.53	0.00296
1790.1	0.00289
1801.67	0.00277
1813.25	0.00272
1824.82	0.00268
1836.39	0.00268
1847.97	0.0027
1859.54	0.00266
1871.12	0.0026
1882.69	0.00255
1894.26	0.00248
1905.84	0.00241
1917.41	0.00236
1928.99	0.0023
1940.56	0.00227
1952.13	0.00224
1963.71	0.00222
1975.28	0.00219
1986.85	0.00216
1998.43	0.00212
2010	0.00206
2021.58	0.002
2033.15	0.00194
2044.72	0.00186
2056.3	0.00176
2067.87	0.00168
2079.44	0.0016
2091.02	0.00154
2102.59	0.00148
2114.17	0.00147
2125.74	0.00145
2137.31	0.00145
2148.89	0.00142
2160.46	0.00142
2172.04	0.00144
2183.61	0.00142
2195.18	0.00145
2206.76	0.00146
2218.33	0.00146
2229.9	0.00146
2241.48	0.00141
2253.05	0.00142
2264.63	0.00143
2276.2	0.00142
2287.77	0.00142
2299.35	0.00145
2310.92	0.00146
2322.5	0.00145
2334.07	0.00145
2345.64	0.00144
2357.22	0.00144
2368.79	0.00144
2380.36	0.00145
2391.94	0.00144
2403.51	0.00146
2415.09	0.00149
2426.66	0.00153
2438.23	0.00149
2449.81	0.00151
2461.38	0.00155
2472.96	0.0015
2484.53	0.00149
2496.1	0.00149
2507.68	0.00147
2519.25	0.00147
2530.82	0.00149
2542.4	0.00151
2553.97	0.00152
2565.55	0.00159
2577.12	0.00161
2588.69	0.00166
2600.27	0.00172
2611.84	0.00177
2623.41	0.00182
2634.99	0.00189
2646.56	0.00194
2658.14	0.00198
2669.71	0.00206
2681.28	0.00213
2692.86	0.00218
2704.43	0.00225
2716.01	0.00237
2727.58	0.0024
2739.15	0.00256
2750.73	0.0027
2762.3	0.00284
2773.87	0.00302
2785.45	0.00327
2797.02	0.0037
2808.6	0.00419
2820.17	0.005
2831.74	0.00649
2843.32	0.00881
2854.89	0.01179
2866.47	0.01435
2878.04	0.01628
2889.61	0.01633
2901.19	0.01659
2912.76	0.01856
2924.33	0.02245
2935.91	0.02479
2947.48	0.02304
2959.06	0.02083
2970.63	0.01973
2982.2	0.01536
2993.78	0.0094
3005.35	0.00516
3016.92	0.00355
3028.5	0.00312
3040.07	0.00292
3051.65	0.00276
3063.22	0.00273
3074.79	0.00257
3086.37	0.00242
3097.94	0.00232
3109.52	0.00215
3121.09	0.00194
3132.66	0.00188
3144.24	0.00181
3155.81	0.00173
3167.38	0.00172
3178.96	0.00166
3190.53	0.00161
3202.11	0.00162
3213.68	0.00155
3225.25	0.00153
3236.83	0.00153
3248.4	0.00152
3259.98	0.00147
3271.55	0.00142
3283.12	0.00146
3294.7	0.00144
3306.27	0.00144
3317.84	0.00151
3329.42	0.0016
3340.99	0.00164
3352.57	0.00168
3364.14	0.00174
3375.71	0.00166
3387.29	0.00168
3398.86	0.00188
3410.43	0.00206
3422.01	0.00227
3433.58	0.00228
3445.16	0.00222
3456.73	0.00213
3468.3	0.00214
3479.88	0.00214
3491.45	0.0021
3503.03	0.00205
3514.6	0.00227
3526.17	0.00276
3537.75	0.00377
3549.32	0.00431
3560.89	0.0041
3572.47	0.00352
3584.04	0.00302
3595.62	0.00273
3607.19	0.00254
3618.76	0.00253
3630.34	0.00268
3641.91	0.00302
3653.49	0.00315
3665.06	0.00301
3676.63	0.00257
3688.21	0.00217
3699.78	0.00181
3711.35	0.00169
3722.93	0.00152
3734.5	0.00151
3746.08	0.00142
3757.65	0.00143
3769.22	0.00147
3780.8	0.0014
3792.37	0.00142
3803.94	0.0014
3815.52	0.00144
3827.09	0.00141
3838.67	0.00143
3850.24	0.00131
3861.81	0.00141
3873.39	0.00136
3884.96	0.0014
3896.54	0.00139
3908.11	0.00131
3919.68	0.00135
3931.26	0.00132
3942.83	0.00135
3954.4	0.00137
3965.98	0.0014
3977.55	0.00135
3989.13	0.00139
4000.7	0.00143
