Infrared Spectrum: 2-BUTANOL, 1-AMINO-
Formula: C4 H11 N O
CAS: 13552-21-1
State: LIQUID (NEAT)
Boiling point: 170.5 C (REDIST.)
Class: COBLENTZ III
Instrument: BAIRD (GRATING)
Instrument parameters: NaCl PRISM
Sampling: TRANSMISSION
Path length: 0.003 CM
Resolution: 2
Origin: WYANDOTTE CHEMICALS CORP.
1/CM	TRANSMITTANCE
4000	0.9542
3991	0.9551
3982	0.9557
3973	0.9561
3964	0.9566
3955	0.957
3946	0.9573
3937	0.9575
3928	0.9577
3919	0.9578
3910	0.9567
3901	0.9556
3892	0.9544
3883	0.9528
3874	0.9512
3865	0.9499
3856	0.9494
3847	0.9489
3838	0.9487
3829	0.949
3820	0.9493
3811	0.9496
3802	0.9499
3793	0.9502
3784	0.9504
3775	0.9507
3766	0.9506
3757	0.9504
3748	0.9495
3739	0.9484
3730	0.9473
3721	0.9457
3712	0.9433
3703	0.9406
3694	0.9368
3685	0.9328
3676	0.9271
3667	0.921
3658	0.9146
3649	0.9053
3640	0.8947
3631	0.8818
3622	0.8696
3613	0.859
3604	0.8483
3595	0.8325
3586	0.8147
3577	0.8
3568	0.7865
3559	0.7687
3550	0.7501
3541	0.7334
3532	0.7172
3523	0.7043
3514	0.6917
3505	0.6358
3496	0.607
3487	0.58
3478	0.5334
3469	0.4936
3460	0.4587
3451	0.4314
3442	0.404
3433	0.3764
3424	0.3488
3415	0.3209
3406	0.2931
3397	0.265
3388	0.2303
3379	0.1986
3370	0.1834
3361	0.1643
3352	0.0741
3343	0.0612
3334	0.0571
3325	0.0571
3316	0.0584
3307	0.0616
3298	0.0646
3289	0.0626
3280	0.0581
3271	0.0547
3262	0.0555
3253	0.0605
3244	0.0652
3235	0.0667
3226	0.0679
3217	0.0667
3208	0.0655
3199	0.0644
3190	0.0637
3181	0.0634
3172	0.0631
3163	0.0642
3154	0.0658
3145	0.0683
3136	0.0725
3127	0.0779
3118	0.0843
3109	0.0916
3100	0.1007
3091	0.1108
3082	0.1238
3073	0.1373
3064	0.1511
3055	0.1634
3046	0.1774
3037	0.1929
3028	0.2041
3019	0.2123
3010	0.2139
3001	0.211
2992	0.1446
2983	0.0509
2974	0.0309
2965	0.0266
2956	0.0258
2947	0.0252
2938	0.0253
2929	0.0259
2920	0.0279
2911	0.0306
2902	0.0335
2893	0.0356
2884	0.033
2875	0.0317
2866	0.0318
2857	0.0335
2848	0.0417
2839	0.0574
2830	0.0747
2821	0.0975
2812	0.122
2803	0.1471
2794	0.1715
2785	0.1851
2776	0.194
2767	0.2014
2758	0.2071
2749	0.2127
2740	0.2175
2731	0.2222
2722	0.2276
2713	0.2396
2704	0.2602
2695	0.2866
2686	0.3091
2677	0.3266
2668	0.3455
2659	0.3652
2650	0.384
2641	0.403
2632	0.4199
2623	0.4285
2614	0.431
2605	0.4395
2596	0.453
2587	0.4679
2578	0.4837
2569	0.4971
2560	0.5104
2551	0.5239
2542	0.5385
2533	0.5595
2524	0.5806
2515	0.602
2506	0.6234
2497	0.6401
2488	0.6518
2479	0.6642
2470	0.6781
2461	0.6883
2452	0.6981
2443	0.708
2434	0.7176
2425	0.7269
2416	0.7353
2407	0.7436
2398	0.7518
2389	0.7601
2380	0.7684
2371	0.7768
2362	0.7846
2353	0.7918
2344	0.7991
2335	0.8058
2326	0.8108
2317	0.813
2308	0.8158
2299	0.8216
2290	0.8362
2281	0.8509
2272	0.8618
2263	0.8646
2254	0.8637
2245	0.8631
2236	0.8718
2227	0.8777
2218	0.8806
2209	0.8828
2200	0.8827
2191	0.8828
2182	0.8868
2173	0.8923
2164	0.8971
2155	0.9002
2146	0.9014
2137	0.9027
2128	0.9036
2119	0.9034
2110	0.9028
2101	0.901
2092	0.8991
2083	0.8971
2074	0.8954
2065	0.8937
2056	0.8928
2047	0.8921
2038	0.8907
2029	0.8894
2020	0.8881
2011	0.8866
2002	0.8841
1993	0.8802
1984	0.8754
1975	0.8706
1966	0.8659
1957	0.8627
1948	0.8596
1939	0.8587
1930	0.8608
1921	0.8631
1912	0.8637
1903	0.859
1894	0.8558
1885	0.8582
1876	0.8587
1867	0.8575
1858	0.8565
1849	0.8555
1840	0.8545
1831	0.8534
1822	0.8525
1813	0.8518
1804	0.851
1795	0.8497
1786	0.8478
1777	0.8461
1768	0.843
1759	0.8391
1750	0.8341
1741	0.8287
1732	0.8232
1723	0.8161
1714	0.8068
1705	0.7956
1696	0.7833
1687	0.7655
1678	0.7342
1669	0.7074
1660	0.6774
1651	0.6425
1642	0.5522
1633	0.4566
1624	0.3624
1615	0.2744
1606	0.3082
1597	0.4102
1588	0.5132
1579	0.5803
1570	0.6371
1561	0.6565
1552	0.6551
1543	0.6614
1534	0.6564
1525	0.6425
1516	0.6102
1507	0.567
1498	0.4806
1489	0.3987
1480	0.1894
1471	0.1273
1462	0.1969
1453	0.2778
1444	0.3386
1435	0.3886
1426	0.4319
1417	0.4744
1408	0.5019
1399	0.4981
1390	0.4329
1381	0.3918
1372	0.3568
1363	0.3031
1354	0.3081
1345	0.3362
1336	0.3456
1327	0.3603
1318	0.3864
1309	0.4315
1300	0.4642
1291	0.4989
1282	0.5
1273	0.5159
1264	0.5269
1255	0.538
1246	0.5908
1237	0.6461
1228	0.6776
1219	0.6942
1210	0.6792
1201	0.6182
1192	0.5342
1183	0.5358
1174	0.5925
1165	0.634
1156	0.6079
1147	0.4609
1138	0.2684
1129	0.2432
1120	0.3071
1111	0.4054
1102	0.4393
1093	0.3641
1084	0.2254
1075	0.1642
1066	0.1941
1057	0.2597
1048	0.2784
1039	0.2879
1030	0.2147
1021	0.187
1012	0.2006
1003	0.1594
994	0.1009
985	0.0532
976	0.0388
967	0.0729
958	0.1098
949	0.1219
940	0.1121
931	0.1007
922	0.1072
913	0.1057
904	0.0954
895	0.1167
886	0.144
877	0.1673
868	0.1904
859	0.2148
850	0.2284
841	0.2214
832	0.2193
823	0.2445
814	0.2974
805	0.3421
796	0.3746
787	0.3976
778	0.4027
769	0.4072
760	0.4242
751	0.4437
742	0.4491
733	0.4494
724	0.4522
715	0.4658
706	0.5044
697	0.5307
688	0.549
679	0.5632
670	0.5686
661	0.563
652	0.5669
643	0.5681
634	0.5719
