Infrared Spectrum: PYRIDINE, 1,2,5,6-TETRAHYDRO-
Formula: C5 H9 N
CAS: 694-05-3
State: LIQUID (NEAT)
Class: COBLENTZ III
Instrument: CARY 90 (GRATING)
Instrument parameters: GRATING CHANGES AT 3000, 2000, 1200 CM^-^1
Sampling: TRANSMISSION
Path length: 0.0025 CM
Resolution: 4
Origin: WESTERN REGIONAL RES. USDA
1/CM	TRANSMITTANCE
479.728	0.261
488.788	0.327
497.848	0.459
506.908	0.577
515.968	0.582
525.028	0.513
534.088	0.643
543.148	0.661
552.208	0.663
561.268	0.662
570.328	0.659
579.388	0.652
588.448	0.64
597.509	0.621
606.569	0.593
615.629	0.57
624.689	0.506
633.749	0.129
642.809	0
651.869	0.038
660.929	0.191
669.989	0.352
679.049	0.405
688.109	0.356
697.169	0.219
706.229	0.146
715.289	0.168
724.349	0.169
733.409	0.107
742.469	0.087
751.529	0.146
760.589	0.259
769.649	0.159
778.709	0.1
787.769	0.08
796.829	0.03
805.889	0.018
814.95	0.033
824.01	0.078
833.07	0.216
842.13	0.297
851.19	0.211
860.25	0.218
869.31	0.253
878.37	0.183
887.43	0.366
896.49	0.349
905.55	0.321
914.61	0.479
923.67	0.587
932.73	0.595
941.79	0.55
950.85	0.522
959.91	0.255
968.97	0.342
978.03	0.08
987.09	0.071
996.15	0.192
1005.21	0.368
1014.27	0.453
1023.33	0.466
1032.39	0.368
1041.45	0.58
1050.51	0.621
1059.57	0.59
1068.63	0.597
1077.69	0.586
1086.75	0.45
1095.81	0.08
1104.87	0.052
1113.93	0.169
1122.99	0.4461
1132.05	0.591
1141.11	0.651
1150.17	0.645
1159.23	0.662
1168.29	0.602
1177.35	0.254
1186.41	0.06
1195.47	0.339
1204.53	0.596
1213.59	0.662
1222.65	0.548
1231.71	0.4929
1240.77	0.6121
1249.83	0.712
1258.89	0.6519
1267.95	0.616
1277.01	0.712
1286.07	0.698
1295.13	0.625
1304.19	0.2617
1313.25	0.2861
1322.31	0.515
1331.37	0.229
1340.43	0.54
1349.49	0.639
1358.55	0.467
1367.61	0.605
1376.67	0.5659
1385.73	0.4171
1394.79	0.608
1403.85	0.645
1412.91	0.622
1421.97	0.4428
1431.03	0.1
1440.09	0.165
1449.15	0.124
1458.21	0.254
1467.27	0.356
1476.33	0.517
1485.39	0.6
1494.45	0.697
1503.51	0.749
1512.57	0.785
1521.63	0.814
1530.69	0.83
1539.75	0.842
1548.81	0.848
1557.87	0.851
1566.93	0.84
1575.99	0.804
1585.05	0.771
1594.11	0.772
1603.17	0.701
1612.23	0.727
1621.29	0.754
1630.35	0.755
1639.41	0.751
1648.47	0.6299
1657.53	0.5331
1666.59	0.74
1675.65	0.787
1684.71	0.805
1693.77	0.824
1702.83	0.836
1711.89	0.84
1720.95	0.835
1730.01	0.852
1739.07	0.873
1748.13	0.881
1757.19	0.887
1766.25	0.892
1775.31	0.895
1784.37	0.9
1793.43	0.903
1802.49	0.904
1811.55	0.898
1820.61	0.892
1829.67	0.889
1838.73	0.891
1847.79	0.896
1856.85	0.903
1865.91	0.908
1874.97	0.906
1884.03	0.906
1893.09	0.904
1902.15	0.896
1911.21	0.884
1920.27	0.872
1929.33	0.857
1938.39	0.855
1947.45	0.857
1956.51	0.864
1965.57	0.867
1974.63	0.869
1983.69	0.87
1992.75	0.87
2001.81	0.869
2010.87	0.868
2019.94	0.867
2029	0.867
2038.06	0.865
2047.12	0.864
2056.18	0.861
2065.24	0.8571
2074.3	0.855
2083.36	0.8559
2092.42	0.8637
2101.48	0.8699
2110.54	0.872
2119.6	0.872
2128.66	0.869
2137.72	0.8672
2146.78	0.8642
2155.84	0.8678
2164.9	0.8716
2173.96	0.87
2183.02	0.8642
2192.08	0.86
2201.14	0.857
2210.2	0.856
2219.26	0.856
2228.32	0.8577
2237.38	0.8597
2246.44	0.8677
2255.5	0.869
2264.56	0.8653
2273.62	0.8573
2282.68	0.8543
2291.74	0.8583
2300.8	0.8646
2309.86	0.8676
2318.92	0.87
2327.98	0.87
2337.04	0.8726
2346.1	0.874
2355.16	0.873
2364.22	0.87
2373.28	0.8664
2382.34	0.865
2391.4	0.865
2400.46	0.866
2409.52	0.866
2418.58	0.8645
2427.64	0.861
2436.7	0.86
2445.76	0.8615
2454.82	0.8649
2463.88	0.8695
2472.94	0.873
2482	0.8648
2491.06	0.839
2500.12	0.8298
2509.18	0.8604
2518.24	0.8562
2527.3	0.8486
2536.36	0.8578
2545.42	0.8606
2554.48	0.8586
2563.54	0.8527
2572.6	0.8477
2581.66	0.8423
2590.72	0.8234
2599.78	0.8022
2608.84	0.6746
2617.9	0.6349
2626.96	0.6866
2636.02	0.6374
2645.08	0.6475
2654.14	0.6398
2663.2	0.635
2672.26	0.5
2681.32	0.5201
2690.38	0.5794
2699.44	0.5019
2708.5	0.3728
2717.56	0.2332
2726.62	0.1321
2735.68	0.0749
2744.74	0.1686
2753.8	0.2245
2762.86	0.1698
2771.92	0.119
2780.98	0.0782
2790.04	0.0546
2799.1	0.0276
2808.16	0.014
2817.22	0.0162
2826.28	0.0319
2835.34	0.01
2844.4	0.0432
2853.46	0.101
2862.52	0.066
2871.58	0.041
2880.64	0.0241
2889.7	0.018
2898.76	0.011
2907.82	0.005
2916.88	0.004
2925.94	0.0069
2935	0.0148
2944.06	0.0228
2953.12	0.0307
2962.18	0.0834
2971.24	0.1909
2980.3	0.3198
2989.36	0.374
2998.42	0.408
3007.48	0.3069
3016.54	0.1039
3025.6	0.0233
3034.66	0.069
3043.72	0.3945
3052.78	0.4539
3061.84	0.4996
3070.9	0.5885
3079.96	0.6125
3089.02	0.6462
3098.08	0.6547
3107.14	0.6617
3116.2	0.6637
3125.26	0.6633
3134.32	0.657
3143.38	0.6473
3152.44	0.6327
3161.5	0.6158
3170.56	0.5949
3179.62	0.5683
3188.68	0.5242
3197.74	0.4871
3206.8	0.4318
3215.86	0.3886
3224.92	0.3251
3233.98	0.2732
3243.04	0.2298
3252.1	0.1963
3261.16	0.1699
3270.22	0.1529
3279.28	0.151
3288.34	0.16
3297.4	0.1815
3306.46	0.2179
3315.52	0.2691
3324.58	0.3489
3333.64	0.3983
3342.7	0.4541
3351.76	0.5273
3360.82	0.5802
3369.88	0.6108
3378.94	0.6292
3388	0.6448
3397.06	0.6579
3406.12	0.6751
3415.18	0.6904
3424.24	0.704
3433.3	0.716
3442.36	0.725
3451.42	0.7333
3460.48	0.7421
3469.54	0.7626
3478.6	0.7689
3487.66	0.782
3496.72	0.7885
3505.78	0.7953
3514.84	0.8002
3523.9	0.806
3532.96	0.8092
3542.02	0.8174
3551.08	0.8252
3560.14	0.8331
3569.2	0.8442
3578.26	0.8512
3587.32	0.855
3596.38	0.856
3605.44	0.857
3614.5	0.857
3623.56	0.857
3632.62	0.858
3641.68	0.859
3650.74	0.86
3659.8	0.8611
3668.86	0.8671
3677.92	0.8751
3686.98	0.885
3696.04	0.891
3705.1	0.89
3714.16	0.887
3723.22	0.884
3732.28	0.882
3741.34	0.881
3750.4	0.878
3759.46	0.877
3768.52	0.877
3777.58	0.877
3786.64	0.8779
3795.7	0.879
3804.76	0.882
3813.82	0.885
3822.88	0.889
3831.94	0.892
3841	0.8989
3850.06	0.9039
3859.12	0.903
3868.18	0.8955
3877.24	0.8892
3886.3	0.885
3895.36	0.8812
3904.42	0.878
3913.48	0.876
3922.54	0.8742
3931.6	0.872
3940.66	0.869
3949.72	0.867
3958.78	0.867
3967.84	0.867
3976.9	0.867
