Infrared Spectrum: 1,2,5,6-Tetrahydropyridine
Formula: C5 H9 N
CAS: 694-05-3
State: LIQUID (NEAT)
Class: COBLENTZ
Instrument: BECKMAN IR-9 (GRATING)
Instrument parameters: ORDER CHANGES: 670, 1200, 2000 CM^-^1
Sampling: TRANSMISSION
Path length: CAPILLARY
Resolution: 2
Origin: DOW CHEMICAL COMPANY
1/CM	TRANSMITTANCE
3794	0.794
3785	0.7934
3776	0.7925
3767	0.7921
3758	0.7922
3749	0.7922
3740	0.7922
3731	0.7921
3722	0.7918
3713	0.7915
3704	0.7912
3695	0.7912
3686	0.7911
3677	0.7911
3668	0.7911
3659	0.7905
3650	0.79
3641	0.7893
3632	0.7887
3623	0.788
3614	0.7872
3605	0.7865
3596	0.7858
3587	0.785
3578	0.7837
3569	0.7821
3560	0.7807
3551	0.7791
3542	0.7772
3533	0.7751
3524	0.7732
3515	0.7712
3506	0.7694
3497	0.7675
3488	0.7657
3479	0.7639
3470	0.7621
3461	0.7605
3452	0.7585
3443	0.7561
3434	0.7538
3425	0.7511
3416	0.7487
3407	0.7464
3398	0.7443
3389	0.7421
3380	0.7393
3371	0.7358
3362	0.731
3353	0.7195
3344	0.7044
3335	0.6919
3326	0.6817
3317	0.6698
3308	0.6544
3299	0.6378
3290	0.6228
3281	0.616
3272	0.6137
3263	0.6145
3254	0.6257
3245	0.6421
3236	0.654
3227	0.6657
3218	0.6783
3209	0.6904
3200	0.7017
3191	0.7091
3182	0.7165
3173	0.7218
3164	0.7264
3155	0.7308
3146	0.7333
3137	0.7356
3128	0.7378
3119	0.7393
3110	0.7407
3101	0.7408
3092	0.7401
3083	0.7388
3074	0.7333
3065	0.7157
3056	0.7103
3047	0.7058
3038	0.6857
3029	0.5895
3020	0.4948
3011	0.5986
3002	0.6954
2993	0.7006
2984	0.6915
2975	0.6678
2966	0.6143
2957	0.545
2948	0.4879
2939	0.4676
2930	0.4283
2921	0.3547
2912	0.3169
2903	0.3292
2894	0.4156
2885	0.4619
2876	0.4741
2867	0.5238
2858	0.5688
2849	0.5781
2840	0.4942
2831	0.4434
2822	0.4993
2813	0.4646
2804	0.4518
2795	0.5201
2786	0.5552
2777	0.5938
2768	0.6277
2759	0.6582
2750	0.6624
2741	0.6248
2732	0.5837
2723	0.6336
2714	0.6785
2705	0.7268
2696	0.7574
2687	0.7667
2678	0.7581
2669	0.7596
2660	0.7728
2651	0.7771
2642	0.7772
2633	0.7775
2624	0.7851
2615	0.7838
2606	0.7867
2597	0.7961
2588	0.8011
2579	0.8041
2570	0.8065
2561	0.8082
2552	0.8096
2543	0.8101
2534	0.8103
2525	0.8111
2516	0.8106
2507	0.8106
2498	0.8108
2489	0.8115
2480	0.8121
2471	0.8126
2462	0.8134
2453	0.814
2444	0.8147
2435	0.8148
2426	0.8151
2417	0.816
2408	0.8168
2399	0.8176
2390	0.8186
2381	0.8193
2372	0.8199
2363	0.8203
2354	0.821
2345	0.8218
2336	0.8228
2327	0.8237
2318	0.8235
2309	0.8231
2300	0.8228
2291	0.8225
2282	0.8224
2273	0.8221
2264	0.8221
2255	0.8221
2246	0.8223
2237	0.8223
2228	0.8221
2219	0.8221
2210	0.8221
2201	0.8221
2192	0.8223
2183	0.8223
2174	0.8225
2165	0.8228
2156	0.8238
2147	0.8251
2138	0.8267
2129	0.8283
2120	0.8291
2111	0.83
2102	0.8308
2093	0.8315
2084	0.8321
2075	0.8328
2066	0.8335
2057	0.8339
2048	0.8344
2039	0.8349
2030	0.8354
2021	0.8358
2012	0.8363
2003	0.8365
1994	0.8365
1985	0.8356
1976	0.8334
1967	0.8295
1958	0.8142
1949	0.8293
1940	0.8298
1931	0.8298
1922	0.8303
1913	0.8324
1904	0.8345
1895	0.8347
1886	0.8355
1877	0.8368
1868	0.838
1859	0.8391
1850	0.8395
1841	0.8395
1832	0.8396
1823	0.8409
1814	0.8425
1805	0.8438
1796	0.8446
1787	0.8436
1778	0.8427
1769	0.8421
1760	0.8421
1751	0.8425
1742	0.8428
1733	0.8394
1724	0.8383
1715	0.8377
1706	0.8377
1697	0.8368
1688	0.8358
1679	0.8346
1670	0.8314
1661	0.805
1652	0.7812
1643	0.8162
1634	0.821
1625	0.8218
1616	0.8199
1607	0.8185
1598	0.828
1589	0.8367
1580	0.8371
1571	0.8459
1562	0.8493
1553	0.8486
1544	0.8478
1535	0.8461
1526	0.8428
1517	0.8381
1508	0.8323
1499	0.8248
1490	0.809
1481	0.7956
1472	0.7755
1463	0.7451
1454	0.6825
1445	0.6601
1436	0.6303
1427	0.629
1418	0.7928
1409	0.7896
1400	0.7934
1391	0.7828
1382	0.7583
1373	0.8139
1364	0.8019
1355	0.8139
1346	0.8252
1337	0.7835
1328	0.7848
1319	0.7928
1310	0.6029
1301	0.8118
1292	0.835
1283	0.8427
1274	0.8445
1265	0.8192
1256	0.8378
1247	0.8467
1238	0.8137
1229	0.8292
1220	0.8172
1211	0.8423
1202	0.8332
1193	0.6996
1184	0.705
1175	0.7751
1166	0.8414
1157	0.8461
1148	0.8451
1139	0.8425
1130	0.8306
1121	0.786
1112	0.5546
1103	0.6007
1094	0.7538
1085	0.7982
1076	0.8164
1067	0.8165
1058	0.8174
1049	0.8234
1040	0.8178
1031	0.7654
1022	0.798
1013	0.8025
1004	0.7878
995	0.6995
986	0.6049
977	0.7595
968	0.7789
959	0.7525
950	0.8259
941	0.8528
932	0.8528
923	0.8608
914	0.8271
905	0.8111
896	0.7933
887	0.7918
878	0.7538
869	0.7476
860	0.7435
851	0.7593
842	0.791
833	0.6603
824	0.5852
815	0.5372
806	0.541
797	0.6408
788	0.6761
779	0.6965
770	0.7793
761	0.7851
752	0.6788
743	0.6701
734	0.7157
725	0.7286
716	0.7178
707	0.7297
698	0.7828
689	0.8167
680	0.8262
671	0.8251
662	0.7768
653	0.5771
644	0.4027
635	0.7005
626	0.8355
617	0.8699
608	0.8797
599	0.8871
590	0.8935
581	0.8985
572	0.9007
563	0.9013
554	0.9011
545	0.9005
536	0.8974
527	0.8859
518	0.8414
509	0.8565
500	0.8525
491	0.8097
482	0.7524
473	0.7119
464	0.7851
455	0.7714
446	0.7518
437	0.749
428	0.8593
419	0.9082
410	0.9027
401	0.8867
