Infrared Spectrum: 2-Chloro-N-methylacetamide
Formula: C 3 H 6 Cl N O
CAS: 96-30-0
State: gas
Origin: EPA-IR VAPOR PHASE LIBRARY
1/CM	ABSORBANCE
549.8	0.002148
559.445	0.002328
569.09	0.001888
578.734	0.001528
588.379	0.001768
598.024	0.002078
607.669	0.002648
617.313	0.002948
626.958	0.002998
636.603	0.002218
646.248	0.002038
655.893	0.002088
665.537	0.002578
675.182	0.003008
684.827	0.002768
694.472	0.002678
704.116	0.002428
713.761	0.002358
723.406	0.002668
733.051	0.003788
742.695	0.007968
752.34	0.014058
761.985	0.015898
771.63	0.012958
781.275	0.005618
790.919	0.002868
800.564	0.002258
810.209	0.001708
819.854	0.001428
829.498	0.001538
839.143	0.001318
848.788	0.001388
858.433	0.001218
868.078	0.001388
877.722	0.0010738
887.367	0.001278
897.012	0.0008098
906.657	0.0011813
916.301	0.002058
925.946	0.001808
935.591	0.002068
945.236	0.002098
954.88	0.002028
964.525	0.002308
974.17	0.002318
983.815	0.002068
993.46	0.001998
1003.1	0.001888
1012.75	0.001718
1022.39	0.001468
1032.04	0.001598
1041.68	0.001418
1051.33	0.001518
1060.97	0.001528
1070.62	0.001238
1080.26	0.001278
1089.91	0.001298
1099.55	0.002018
1109.2	0.002028
1118.84	0.001558
1128.49	0.002278
1138.13	0.001958
1147.78	0.002138
1157.42	0.002378
1167.07	0.003078
1176.71	0.003728
1186.36	0.004548
1196	0.004778
1205.64	0.005458
1215.29	0.006758
1224.93	0.008228
1234.58	0.011718
1244.22	0.017718
1253.87	0.020478
1263.51	0.018358
1273.16	0.012598
1282.8	0.006808
1292.45	0.004308
1302.09	0.003028
1311.74	0.002188
1321.38	0.001948
1331.03	0.002008
1340.67	0.002128
1350.32	0.002278
1359.96	0.002518
1369.61	0.002768
1379.25	0.003018
1388.9	0.003708
1398.54	0.005258
1408.18	0.008288
1417.83	0.010508
1427.47	0.010538
1437.12	0.008398
1446.76	0.005818
1456.41	0.005388
1466.05	0.006988
1475.7	0.010458
1485.34	0.016428
1494.99	0.024978
1504.63	0.034428
1514.28	0.040678
1523.92	0.040788
1533.57	0.034578
1543.21	0.026748
1552.86	0.019658
1562.5	0.013818
1572.15	0.009288
1581.79	0.006318
1591.44	0.004398
1601.08	0.003358
1610.73	0.002698
1620.37	0.002278
1630.01	0.002278
1639.66	0.002478
1649.3	0.003158
1658.95	0.004088
1668.59	0.005578
1678.24	0.009108
1687.88	0.019318
1697.53	0.045218
1707.17	0.076428
1716.82	0.077098
1726.46	0.066018
1736.11	0.029398
1745.75	0.013158
1755.4	0.006868
1765.04	0.004498
1774.69	0.003188
1784.33	0.001998
1793.98	0.001338
1803.62	0.0009228
1813.27	0.0008124
1822.91	0.0007722
1832.55	0.000771
1842.2	0.0008046
1851.84	0.0007601
1861.49	0.0007638
1871.13	0.0007487
1880.78	0.0007303
1890.42	0.000665
1900.07	0.0005756
1909.71	0.0005326
1919.36	0.0005128
1929	0.0005279
1938.65	0.0005548
1948.29	0.0004437
1957.94	0.000559
1967.58	0.0003862
1977.23	0.0004227
1986.87	0.0003442
1996.52	0.0004851
2006.16	0.0005392
2015.81	0.0005594
2025.45	0.0004565
2035.1	0.0004357
2044.74	0.0003702
2054.38	0.0003706
2064.03	0.0003828
2073.67	0.0003553
2083.32	0.0003824
2092.96	0.0004873
2102.61	0.0004757
2112.25	0.0005625
2121.9	0.0005351
2131.54	0.0006066
2141.19	0.0006173
2150.83	0.0005372
2160.48	0.0004908
2170.12	0.0004091
2179.77	0.0003387
2189.41	0.0004785
2199.06	0.0004261
2208.7	0.0003968
2218.35	0.00027041
2227.99	0.0003473
2237.64	0.0003113
2247.28	0.00020727
2256.92	0.0003553
2266.57	0.0003026
2276.21	0.00021436
2285.86	0.00026781
2295.5	0.0003803
2305.15	0.0003246
2314.79	0.00026885
2324.44	0.000408
2334.08	0.0004503
2343.73	0.0003729
2353.37	0.0004009
2363.02	0.0004456
2372.66	0.0004559
2382.31	0.0004545
2391.95	0.0004639
2401.6	0.0004324
2411.24	0.000384
2420.89	0.000190728
2430.53	0.0004152
2440.18	0.0002991
2449.82	0.0003163
2459.47	0.0004102
2469.11	0.00027375
2478.75	0.0003239
2488.4	0.0002962
2498.04	0.00024624
2507.69	0.0003143
2517.33	0.00034
2526.98	0.0003296
2536.62	0.00027558
2546.27	0.00026983
2555.91	0.0003143
2565.56	0.0003484
2575.2	0.0004312
2584.85	0.0005359
2594.49	0.0004412
2604.14	0.0003972
2613.78	0.000413
2623.43	0.000407
2633.07	0.00026984
2642.72	0.0003597
2652.36	0.0003574
2662.01	0.0003498
2671.65	0.0002946
2681.29	0.0004115
2690.94	0.00027838
2700.58	0.0004832
2710.23	0.0004261
2719.87	0.0004082
2729.52	0.000293
2739.16	0.0004418
2748.81	0.0004216
2758.45	0.0004066
2768.1	0.0004624
2777.74	0.0005805
2787.39	0.0007073
2797.03	0.001013
2806.68	0.001328
2816.32	0.001858
2825.97	0.002048
2835.61	0.001718
2845.26	0.001338
2854.9	0.001238
2864.55	0.001538
2874.19	0.002158
2883.84	0.003058
2893.48	0.003968
2903.12	0.004928
2912.77	0.005758
2922.41	0.006728
2932.06	0.007978
2941.7	0.009418
2951.35	0.010078
2960.99	0.009638
2970.64	0.007908
2980.28	0.006068
2989.93	0.004588
2999.57	0.003308
3009.22	0.002678
3018.86	0.002428
3028.51	0.002088
3038.15	0.002178
3047.8	0.002008
3057.44	0.001768
3067.09	0.001668
3076.73	0.001428
3086.38	0.0010808
3096.02	0.0009048
3105.67	0.000857
3115.31	0.0006872
3124.95	0.000545
3134.6	0.0004577
3144.24	0.0005776
3153.89	0.00024758
3163.53	0.0003102
3173.18	0.0003809
3182.82	0.0003429
3192.47	0.0003747
3202.11	0.00022148
3211.76	0.0003963
3221.4	0.0004852
3231.05	0.0003289
3240.69	0.00028501
3250.34	0.0002881
3259.98	0.00025857
3269.63	0.0004092
3279.27	0.0004144
3288.92	0.0005459
3298.56	0.0004488
3308.21	0.0005294
3317.85	0.0004729
3327.49	0.0003523
3337.14	0.00028323
3346.78	0.00022328
3356.43	0.0005875
3366.07	0.000339
3375.72	0.0004051
3385.36	0.0008714
3395.01	0.0010209
3404.65	0.001488
3414.3	0.001488
3423.94	0.001798
3433.59	0.002558
3443.23	0.004788
3452.88	0.009858
3462.52	0.014188
3472.17	0.013418
3481.81	0.009078
3491.46	0.003368
3501.1	0.001588
3510.75	0.0009424
3520.39	0.0006438
3530.04	0.0004563
3539.68	0.000626
3549.32	0.0003924
3558.97	0.0003339
3568.61	0.0006164
3578.26	0.0001434
3587.9	0.00023652
3597.55	0.0003274
3607.19	0.00021176
3616.84	0.0001549
3626.48	0.00024449
3636.13	0.0002918
3645.77	0.0005664
3655.42	0.0003569
3665.06	0.00021939
3674.71	0.00027655
3684.35	8.4e-05
3694	0.000187856
3703.64	0.0002902
3713.29	0.00027981
3722.93	0.0003702
3732.58	0.0001259
3742.22	0.0003816
3751.86	0.00021347
3761.51	0.0003161
3771.15	0.00021175
3780.8	0.0004445
3790.44	0.0003647
3800.09	6.4e-05
3809.73	0.00020276
3819.38	0.000389
3829.02	0.0003182
3838.67	0.00023491
3848.31	0.0003777
3857.96	0.0003116
3867.6	0.0004458
3877.25	0.0003438
3886.89	0.0002975
3896.54	0.0003607
3906.18	0.00020992
3915.83	0.0004242
3925.47	0.0003678
3935.12	0.000402
3944.76	0.00027129
3954.41	0.000415
3964.05	0.000322
3973.69	0.00026227
3983.34	0.0001551
3992.98	0.00020835
