Infrared Spectrum: 2-PROPENAMIDE, 2-METHYL-
Formula: C4 H7 N O
CAS: 79-39-0
State: SOLID (SPLIT MULL, FLUOROLUBE FOR 3800-1300 AND NUJOL FOR 1300-250 CM ^-^1)
Class: COBLENTZ III
Instrument: PERKIN-ELMER 521 (GRATING)
Instrument parameters: FILTERS AT 3150, 2500, 2000, 1150, 700, 410; GRATING CHANGES AT 2000, 630 CM^-^1
Sampling: TRANSMISSION
Resolution: 4
Origin: DOW CORNING CORP.
1/CM	TRANSMITTANCE
247.179	0.682
256.41	0.7399
265.641	0.8109
274.871	0.846
284.102	0.859
293.333	0.851
302.564	0.775
311.795	0.6
321.025	0.662
330.256	0.841
339.487	0.911
348.718	0.911
357.949	0.929
367.18	0.965
376.41	0.966
385.641	0.961
394.872	0.95
404.103	0.917
413.334	0.931
422.564	0.957
431.795	0.966
441.026	0.966
450.257	0.962
459.488	0.957
468.718	0.948
477.949	0.943
487.18	0.94
496.411	0.925
505.642	0.891
514.873	0.764
524.103	0.681
533.334	0.82
542.565	0.834
551.796	0.811
561.027	0.7441
570.257	0.587
579.488	0.495
588.719	0.524
597.95	0.449
607.181	0.38
616.411	0.321
625.642	0.292
634.873	0.299
644.104	0.313
653.335	0.365
662.566	0.405
671.796	0.423
681.027	0.459
690.258	0.5
699.489	0.557
708.72	0.593
717.95	0.609
727.181	0.63
736.412	0.646
745.643	0.657
754.874	0.674
764.104	0.675
773.335	0.562
782.566	0.48
791.797	0.718
801.028	0.822
810.258	0.7571
819.489	0.5261
828.72	0.5129
837.951	0.764
847.182	0.83
856.413	0.853
865.643	0.856
874.874	0.856
884.105	0.859
893.336	0.848
902.567	0.846
911.797	0.834
921.028	0.777
930.259	0.3082
939.49	0.268
948.721	0.707
957.951	0.697
967.182	0.802
976.413	0.817
985.644	0.826
994.875	0.801
1004.11	0.736
1013.34	0.63
1022.57	0.802
1031.8	0.83
1041.03	0.823
1050.26	0.82
1059.49	0.802
1068.72	0.78
1077.95	0.736
1087.18	0.653
1096.41	0.4561
1105.64	0.132
1114.88	0.328
1124.11	0.653
1133.34	0.718
1142.57	0.72
1151.8	0.702
1161.03	0.673
1170.26	0.653
1179.49	0.641
1188.72	0.628
1197.95	0.595
1207.18	0.569
1216.41	0.525
1225.64	0.387
1234.88	0.162
1244.11	0.434
1253.34	0.551
1262.57	0.558
1271.8	0.55
1281.03	0.543
1290.26	0.54
1299.49	0.569
1308.72	0.584
1317.95	0.586
1327.18	0.576
1336.41	0.55
1345.65	0.522
1354.88	0.518
1364.11	0.4131
1373.34	0.347
1382.57	0.246
1391.8	0.353
1401.03	0.195
1410.26	0.182
1419.49	0.227
1428.72	0.339
1437.95	0.438
1447.18	0.397
1456.42	0.278
1465.65	0.445
1474.88	0.572
1484.11	0.637
1493.34	0.646
1502.57	0.64
1511.8	0.619
1521.03	0.609
1530.26	0.586
1539.49	0.547
1548.72	0.51
1557.95	0.478
1567.18	0.444
1576.42	0.368
1585.65	0.28
1594.88	0.092
1604.11	0.027
1613.34	0.1881
1622.57	0.307
1631.8	0.26
1641.03	0.171
1650.26	0.147
1659.49	0.052
1668.72	0.06
1677.95	0.166
1687.19	0.299
1696.42	0.424
1705.65	0.573
1714.88	0.66
1724.11	0.713
1733.34	0.762
1742.57	0.788
1751.8	0.804
1761.03	0.82
1770.26	0.842
1779.49	0.853
1788.72	0.856
1797.96	0.863
1807.19	0.868
1816.42	0.871
1825.65	0.87
1834.88	0.87
1844.11	0.864
1853.34	0.855
1862.57	0.815
1871.8	0.823
1881.03	0.84
1890.26	0.852
1899.49	0.86
1908.73	0.866
1917.96	0.866
1927.19	0.864
1936.42	0.862
1945.65	0.86
1954.88	0.859
1964.11	0.857
1973.34	0.855
1982.57	0.856
1991.8	0.855
2001.03	0.8525
2010.26	0.864
2019.49	0.864
2028.73	0.864
2037.96	0.8634
2047.19	0.8616
2056.42	0.859
2065.65	0.8585
2074.88	0.856
2084.11	0.853
2093.34	0.852
2102.57	0.8516
2111.8	0.846
2121.03	0.845
2130.26	0.845
2139.5	0.843
2148.73	0.8398
2157.96	0.8318
2167.19	0.8257
2176.42	0.823
2185.65	0.8166
2194.88	0.8113
2204.11	0.8087
2213.34	0.808
2222.57	0.8083
2231.8	0.808
2241.03	0.808
2250.27	0.806
2259.5	0.806
2268.73	0.805
2277.96	0.804
2287.19	0.802
2296.42	0.801
2305.65	0.8
2314.88	0.798
2324.11	0.795
2333.34	0.794
2342.57	0.7907
2351.8	0.788
2361.03	0.788
2370.27	0.7861
2379.5	0.784
2388.73	0.784
2397.96	0.783
2407.19	0.7819
2416.42	0.78
2425.65	0.78
2434.88	0.7781
2444.11	0.7747
2453.34	0.768
2462.57	0.7652
2471.8	0.7705
2481.04	0.771
2490.27	0.769
2499.5	0.768
2508.73	0.766
2517.96	0.766
2527.19	0.764
2536.42	0.764
2545.65	0.7639
2554.88	0.761
2564.11	0.7609
2573.34	0.7587
2582.57	0.757
2591.81	0.753
2601.04	0.7507
2610.27	0.7484
2619.5	0.747
2628.73	0.747
2637.96	0.7412
2647.19	0.737
2656.42	0.7341
2665.65	0.731
2674.88	0.7245
2684.11	0.7219
2693.34	0.7188
2702.57	0.713
2711.81	0.71
2721.04	0.7008
2730.27	0.6821
2739.5	0.6635
2748.73	0.6442
2757.96	0.641
2767.19	0.6313
2776.42	0.6133
2785.65	0.6148
2794.88	0.6349
2804.11	0.64
2813.34	0.6359
2822.58	0.627
2831.81	0.6407
2841.04	0.6444
2850.27	0.6303
2859.5	0.6268
2868.73	0.6175
2877.96	0.612
2887.19	0.6112
2896.42	0.5999
2905.65	0.5862
2914.88	0.5637
2924.11	0.5374
2933.35	0.5015
2942.58	0.565
2951.81	0.5483
2961.04	0.5152
2970.27	0.498
2979.5	0.5001
2988.73	0.452
2997.96	0.488
3007.19	0.4812
3016.42	0.4681
3025.65	0.4418
3034.88	0.4127
3044.11	0.3933
3053.35	0.4009
3062.58	0.4229
3071.81	0.4145
3081.04	0.3945
3090.27	0.3715
3099.5	0.3475
3108.73	0.337
3117.96	0.3212
3127.19	0.2975
3136.42	0.2712
3145.65	0.229
3154.88	0.1941
3164.12	0.1511
3173.35	0.1176
3182.58	0.0912
3191.81	0.0761
3201.04	0.08
3210.27	0.1017
3219.5	0.1444
3228.73	0.1793
3237.96	0.2244
3247.19	0.2524
3256.42	0.2786
3265.65	0.281
3274.89	0.278
3284.12	0.282
3293.35	0.2977
3302.58	0.3021
3311.81	0.2843
3321.04	0.2553
3330.27	0.2295
3339.5	0.2159
3348.73	0.186
3357.96	0.1363
3367.19	0.1039
3376.42	0.0907
3385.65	0.0887
3394.89	0.1115
3404.12	0.1849
3413.35	0.2637
3422.58	0.4221
3431.81	0.5293
3441.04	0.6287
3450.27	0.6781
3459.5	0.7129
3468.73	0.7366
3477.96	0.75
3487.19	0.7576
3496.42	0.758
3505.66	0.758
3514.89	0.758
3524.12	0.7556
3533.35	0.754
3542.58	0.75
3551.81	0.748
3561.04	0.747
3570.27	0.7452
3579.5	0.743
3588.73	0.739
3597.96	0.733
3607.19	0.731
3616.43	0.728
3625.66	0.724
3634.89	0.72
3644.12	0.718
3653.35	0.718
3662.58	0.715
3671.81	0.7137
3681.04	0.7114
3690.27	0.71
3699.5	0.708
3708.73	0.704
3717.96	0.702
3727.19	0.696
3736.43	0.692
3745.66	0.6901
3754.89	0.695
3764.12	0.6902
3773.35	0.693
3782.58	0.6911
3791.81	0.688
