Infrared Spectrum: 3-Buten-1-ol
Formula: C 4 H 8 O
CAS: 627-27-0
State: gas
Instrument: HP-GC/MS/IRD
Origin: NIST Mass Spectrometry Data Center
1/CM	ABSORBANCE
550	0.0008608
562	0.0006976
574	0.0007456
586	0.0007456
598	0.0010368
610	0.0017248
622	0.002256
634	0.0025024
646	0.0024416
658	0.0019296
670	0.0013024
682	0.0008
694	0.0005696
706	0.0004224
718	0.0002784
730	0.0001344
742	8.32e-05
754	0.0001312
766	0.0001536
778	0.0002304
790	0.0003648
802	0.000544
814	0.0009792
826	0.0014016
838	0.0022016
850	0.0030816
862	0.0038592
874	0.004496
886	0.0054336
898	0.0074272
910	0.01032
922	0.0114432
934	0.0104352
946	0.0079744
958	0.007776
970	0.0095616
982	0.0114912
994	0.0131072
1006	0.0139264
1018	0.0169312
1030	0.0245664
1042	0.0313952
1054	0.0305344
1066	0.0207424
1078	0.011904
1090	0.0066784
1102	0.004448
1114	0.0035136
1126	0.003072
1138	0.0028608
1150	0.0029664
1162	0.0032608
1174	0.0037664
1186	0.0040288
1198	0.0041856
1210	0.0041088
1222	0.0038656
1234	0.0036672
1246	0.0035712
1258	0.0036384
1270	0.0037344
1282	0.0037856
1294	0.0037056
1306	0.0035232
1318	0.0033984
1330	0.0033728
1342	0.0035424
1354	0.0041088
1366	0.0055136
1378	0.0068512
1390	0.0070688
1402	0.0060672
1414	0.0049088
1426	0.0044704
1438	0.0041152
1450	0.0033408
1462	0.0024224
1474	0.0018176
1486	0.0013792
1498	0.000912
1510	0.0005472
1522	0.0004032
1534	0.000352
1546	0.0002976
1558	0.0002976
1570	0.000272
1582	0.0003264
1594	0.0004672
1606	0.0009152
1618	0.00192
1630	0.0034144
1642	0.003744
1654	0.003168
1666	0.001232
1678	0.0004896
1690	0.0002592
1702	0.0001856
1714	0.0001504
1726	0.0001088
1738	3.52e-05
1750	3.2e-05
1762	2.88e-05
1774	4.16e-05
1786	7.68e-05
1798	0.0001472
1810	0.0003296
1822	0.0007616
1834	0.0010848
1846	0.0011072
1858	0.000752
1870	0.0004064
1882	0.0002464
1894	0.0002016
1906	0.0002112
1918	0.0001696
1930	0.0001344
1942	0.0001088
1954	0.0001056
1966	0.0001408
1978	0.0001632
1990	0.0001696
2002	0.0001664
2014	0.0002048
2026	0.0002176
2038	0.0002272
2050	0.0002304
2062	0.0002528
2074	0.0002464
2086	0.0002464
2098	0.000192
2110	0.00016
2122	0.0001152
2134	8e-05
2146	7.68e-05
2158	8e-05
2170	7.04e-05
2182	8.64e-05
2194	5.12e-05
2206	6.08e-05
2218	6.4e-05
2230	9.28e-05
2242	9.92e-05
2254	0.0001088
2266	0.000112
2278	0.0001472
2290	0.0001504
2302	0.0001408
2314	0.0001536
2326	0.000112
2338	7.36e-05
2350	9.6e-05
2362	7.36e-05
2374	0.0001312
2386	0.0001216
2398	0.0001728
2410	0.0001664
2422	0.000192
2434	0.0001824
2446	0.000192
2458	0.000176
2470	0.000144
2482	0.0001376
2494	0.000112
2506	0.0001376
2518	0.0001312
2530	0.0001568
2542	0.0001536
2554	0.0001152
2566	0.0001312
2578	0.000144
2590	0.0001568
2602	0.0001664
2614	0.0002656
2626	0.0002688
2638	0.0003136
2650	0.000336
2662	0.0003936
2674	0.000464
2686	0.0005408
2698	0.0006176
2710	0.0007552
2722	0.0009056
2734	0.001024
2746	0.0011552
2758	0.001248
2770	0.0013056
2782	0.0014304
2794	0.0016512
2806	0.0019968
2818	0.0026624
2830	0.0037568
2842	0.0053376
2854	0.0075808
2866	0.010592
2878	0.0134464
2890	0.0154944
2902	0.01728
2914	0.019072
2926	0.0206432
2938	0.0206528
2950	0.01864
2962	0.0156416
2974	0.0128544
2986	0.0104416
2998	0.008384
3010	0.0065184
3022	0.0047936
3034	0.0034848
3046	0.003104
3058	0.003632
3070	0.005216
3082	0.0066816
3094	0.0061984
3106	0.0042656
3118	0.0018528
3130	0.0009184
3142	0.0005792
3154	0.0003744
3166	0.0002784
3178	0.0002176
3190	0.0001152
3202	0.0001152
3214	8e-05
3226	8.96e-05
3238	6.72e-05
3250	0.0001024
3262	8.96e-05
3274	9.28e-05
3286	0.0001024
3298	9.6e-05
3310	8.96e-05
3322	9.28e-05
3334	8.96e-05
3346	0.0001376
3358	0.00016
3370	0.0001856
3382	0.0002176
3394	0.0001856
3406	0.000208
3418	0.0002304
3430	0.0002272
3442	0.0002304
3454	0.000304
3466	0.000384
3478	0.0003808
3490	0.0003904
3502	0.0003904
3514	0.0003168
3526	0.00032
3538	0.0003712
3550	0.0003904
3562	0.0003936
3574	0.0003552
3586	0.0005056
3598	0.0007296
3610	0.0014464
3622	0.002064
3634	0.0027168
3646	0.00368
3658	0.0049088
3670	0.005152
3682	0.0041344
3694	0.0022848
3706	0.0011584
3718	0.0006976
3730	0.0005056
3742	0.0004128
3754	0.0003488
3766	0.000368
3778	0.0003488
3790	0.0003104
3802	0.0002496
3814	0.000256
3826	0.0003104
3838	0.00032
