Infrared Spectrum: 2-Buten-1-ol
Formula: C 4 H 8 O
CAS: 6117-91-5
State: gas
Origin: Sadtler Research Labs Under US-EPA Contract
1/CM	ABSORBANCE
450	0.0708819
462	0.0204044
474	0.00900193
486	0.0268724
498	0.0480103
510	0.0176705
522	0.0245386
534	0.0212046
546	0.0126027
558	0.0126694
570	0.00440095
582	0.0117359
594	0.0137363
606	0.0100021
618	0.0105356
630	0.0134029
642	0.0166036
654	0.0176705
666	0.0247387
678	0.0318735
690	0.0242052
702	0.0210712
714	0.0139363
726	0.00953538
738	0.00826844
750	0.00706819
762	0.00840181
774	0.00840181
786	0.00886857
798	0.007735
810	0.00733491
822	0.00873521
834	0.0148699
846	0.0204044
858	0.0290729
870	0.0360077
882	0.0554119
894	0.0785502
906	0.0981544
918	0.0975543
930	0.139697
942	0.231716
954	0.393618
966	0.566722
978	0.560254
990	0.596728
1002	0.66681
1014	0.580325
1026	0.35761
1038	0.235451
1050	0.208712
1062	0.247987
1074	0.300931
1086	0.274659
1098	0.192975
1110	0.165369
1122	0.145698
1134	0.121559
1146	0.0994214
1158	0.0981544
1170	0.108623
1182	0.114891
1194	0.113424
1206	0.107756
1218	0.110357
1230	0.114558
1242	0.130628
1254	0.136029
1266	0.125094
1278	0.128628
1290	0.166502
1302	0.165236
1314	0.202644
1326	0.362278
1338	0.606464
1350	0.387217
1362	0.284461
1374	0.29653
1386	0.336139
1398	0.3106
1410	0.387883
1422	0.299664
1434	0.246386
1446	0.183373
1458	0.165969
1470	0.182306
1482	0.196842
1494	0.099288
1506	0.0573457
1518	0.035741
1530	0.0275393
1542	0.0264057
1554	0.0152699
1566	0.0137363
1578	0.0142031
1590	0.0112024
1602	0.00973543
1614	0.0135362
1626	0.0106023
1638	0.0206044
1650	0.0222048
1662	0.0481437
1674	0.066881
1686	0.0646139
1698	0.0254721
1710	0.032407
1722	0.0398752
1734	0.0422758
1746	0.0454098
1758	0.0290729
1770	0.0179372
1782	0.0120693
1794	0.0094687
1806	0.00926866
1818	0.00680146
1830	0.00400086
1842	0.00286728
1854	0.00373414
1866	0.0028006
1878	0.00286728
1890	0.00306733
1902	0.00266724
1914	0.00193375
1926	0.00293396
1938	0.00426758
1950	0.00460099
1962	0.00566788
1974	0.00720155
1986	0.00940202
1998	0.0120026
2010	0.0119359
2022	0.00886857
2034	0.00733491
2046	0.00686814
2058	0.00740159
2070	0.0080684
2082	0.00693482
2094	0.00600129
2106	0.00480103
2118	0.00453431
2130	0.00506776
2142	0.0056012
2154	0.00440095
2166	0.00440095
2178	0.00313401
2190	0.00306733
2202	0.00360077
2214	0.00360077
2226	0.00333405
2238	0.00340073
2250	0.0028006
2262	0.00393418
2274	0.00413422
2286	0.00286728
2298	0.0010669
2310	0
2322	0.0024672
2334	0.00513444
2346	0.00406754
2358	0.00366745
2370	0.00820176
2382	0.00686814
2394	0.00726823
2406	0.00593461
2418	0.0056012
2430	0.00533448
2442	0.0056012
2454	0.00620133
2466	0.00626801
2478	0.00573457
2490	0.00600129
2502	0.00480103
2514	0.00413422
2526	0.00453431
2538	0.00446763
2550	0.00466767
2562	0.00553452
2574	0.00593461
2586	0.00600129
2598	0.00653474
2610	0.0066681
2622	0.00800172
2634	0.0091353
2646	0.00926866
2658	0.0107356
2670	0.0122693
2682	0.0140697
2694	0.0167369
2706	0.0188707
2718	0.0223381
2730	0.029473
2742	0.0378081
2754	0.0398752
2766	0.0341407
2778	0.0352742
2790	0.0406754
2802	0.0461433
2814	0.0571456
2826	0.0784169
2838	0.114891
2850	0.183173
2862	0.315334
2874	0.415623
2886	0.439961
2898	0.412222
2910	0.397285
2922	0.474902
2934	0.540716
2946	0.514444
2958	0.428292
2970	0.388017
2982	0.310133
2994	0.240585
3006	0.21638
3018	0.223848
3030	0.221914
3042	0.18564
3054	0.128961
3066	0.0812175
3078	0.0520112
3090	0.0354076
3102	0.0272725
3114	0.0211379
3126	0.0194042
3138	0.0178705
3150	0.0144698
3162	0.0112691
3174	0.00800172
3186	0.0066681
3198	0.00660142
3210	0.00620133
3222	0.00486771
3234	0.00453431
3246	0.00393418
3258	0.00380082
3270	0.00253388
3282	0.00440095
3294	0.00300064
3306	0.00353409
3318	0.00380082
3330	0.00453431
3342	0.00520112
3354	0.00546784
3366	0.00540116
3378	0.00606797
3390	0.00620133
3402	0.00580125
3414	0.00626801
3426	0.00733491
3438	0.00613465
3450	0.00613465
3462	0.00513444
3474	0.0066681
3486	0.00606797
3498	0.00440095
3510	0.00333405
3522	0.00426758
3534	0.00213379
3546	0.00100021
3558	0.00373414
3570	0.00300064
3582	0.00533448
3594	0.00606797
3606	0.00960206
3618	0.0220714
3630	0.0426758
3642	0.0686814
3654	0.0937535
3666	0.104956
3678	0.0839514
3690	0.0435427
3702	0.0191374
3714	0.0101355
3726	0.00566788
3738	0.00213379
3750	0.00653474
3762	0.00640138
3774	0.00533448
3786	0.00180039
3798	0.00380082
3810	0.00680146
3822	0.00733491
3834	0.00840181
3846	0.00500107
3858	0.00940202
3870	0.00653474
3882	0.0102022
3894	0.007735
3906	0.00166702
3918	0.00580125
3930	0.0129361
3942	0.00993547
3954	0.00800172
3966	0.0052678
