Infrared Spectrum: Propyne
Formula: C3 H4
CAS: 74-99-7
State: GAS (50 mmHg, N2 ADDED, TOTAL PRESSURE 600 mmHg)
Class: COBLENTZ
Instrument: DOW KBr FOREPRISM-GRATING
Instrument parameters: GRATING CHANGED AT 5.0, 7.5, 15.0 MICRON
Sampling: TRANSMISSION
Path length: 5 CM
Resolution: 2
Origin: DOW CHEMICAL COMPANY
1/CM	TRANSMITTANCE
462	0.8508
471	0.8528
480	0.8514
489	0.8495
498	0.8471
507	0.8453
516	0.8442
525	0.8432
534	0.8425
543	0.8423
552	0.8424
561	0.8455
570	0.8485
579	0.8495
588	0.8447
597	0.8118
606	0.7266
615	0.4894
624	0.2249
633	0.0159
642	0.0823
651	0.2205
660	0.4672
669	0.7953
678	0.8463
687	0.8705
696	0.8719
705	0.8737
714	0.8755
723	0.8804
732	0.6935
741	0.8758
750	0.8748
759	0.8752
768	0.879
777	0.8854
786	0.8849
795	0.8841
804	0.8837
813	0.8821
822	0.8824
831	0.8816
840	0.882
849	0.8825
858	0.8834
867	0.8837
876	0.881
885	0.8756
894	0.8687
903	0.8588
912	0.8495
921	0.8471
930	0.8637
939	0.8495
948	0.8578
957	0.8707
966	0.8805
975	0.8865
984	0.8909
993	0.8937
1002	0.895
1011	0.8963
1020	0.8986
1029	0.8944
1038	0.8943
1047	0.8917
1056	0.8884
1065	0.8831
1074	0.8701
1083	0.8555
1092	0.8483
1101	0.8331
1110	0.87
1119	0.834
1128	0.8617
1137	0.8844
1146	0.8738
1155	0.8483
1164	0.8114
1173	0.79
1182	0.7558
1191	0.7719
1200	0.8041
1209	0.8855
1218	0.8802
1227	0.8316
1236	0.6892
1245	0.5516
1254	0.6608
1263	0.6043
1272	0.5661
1281	0.6966
1290	0.8374
1299	0.8678
1308	0.871
1317	0.8662
1326	0.8588
1335	0.8585
1344	0.8574
1353	0.8352
1362	0.8254
1371	0.8278
1380	0.7972
1389	0.7786
1398	0.8061
1407	0.7999
1416	0.8157
1425	0.6967
1434	0.8114
1443	0.805
1452	0.6863
1461	0.7709
1470	0.7872
1479	0.6403
1488	0.7986
1497	0.7943
1506	0.5978
1515	0.8123
1524	0.7942
1533	0.8018
1542	0.8304
1551	0.8095
1560	0.8479
1569	0.8429
1578	0.8608
1587	0.8653
1596	0.8731
1605	0.8747
1614	0.8738
1623	0.8766
1632	0.8786
1641	0.8802
1650	0.8803
1659	0.8804
1668	0.8805
1677	0.8787
1686	0.8775
1695	0.8769
1704	0.8776
1713	0.877
1722	0.8775
1731	0.8764
1740	0.8763
1749	0.8769
1758	0.8786
1767	0.8776
1776	0.8761
1785	0.877
1794	0.8777
1803	0.8794
1812	0.879
1821	0.8778
1830	0.8783
1839	0.8789
1848	0.8794
1857	0.8789
1866	0.8791
1875	0.8801
1884	0.8806
1893	0.8807
1902	0.881
1911	0.8811
1920	0.8809
1929	0.8808
1938	0.8802
1947	0.8789
1956	0.8757
1965	0.8814
1974	0.8807
1983	0.8826
1992	0.8835
2001	0.8829
2010	0.8819
2019	0.8808
2028	0.8794
2037	0.8779
2046	0.876
2055	0.8746
2064	0.8776
2073	0.8737
2082	0.8688
2091	0.8697
2100	0.8693
2109	0.8634
2118	0.839
2127	0.8062
2136	0.7889
2145	0.8131
2154	0.7878
2163	0.7879
2172	0.8467
2181	0.882
2190	0.8862
2199	0.8873
2208	0.8874
2217	0.8872
2226	0.887
2235	0.8867
2244	0.8864
2253	0.886
2262	0.8853
2271	0.8845
2280	0.8831
2289	0.8814
2298	0.8799
2307	0.8784
2316	0.8775
2325	0.8768
2334	0.8812
2343	0.8824
2352	0.8818
2361	0.8813
2370	0.881
2379	0.881
2388	0.8816
2397	0.8791
2406	0.879
2415	0.8795
2424	0.8795
2433	0.8796
2442	0.8804
2451	0.8812
2460	0.8816
2469	0.8819
2478	0.8823
2487	0.8826
2496	0.883
2505	0.8833
2514	0.8832
2523	0.883
2532	0.8828
2541	0.8828
2550	0.8828
2559	0.8828
2568	0.8825
2577	0.8822
2586	0.8822
2595	0.8823
2604	0.8829
2613	0.8834
2622	0.8839
2631	0.8843
2640	0.8837
2649	0.883
2658	0.8826
2667	0.8822
2676	0.8812
2685	0.88
2694	0.8782
2703	0.8776
2712	0.879
2721	0.8747
2730	0.8698
2739	0.8619
2748	0.8584
2757	0.8552
2766	0.8575
2775	0.8671
2784	0.8622
2793	0.8505
2802	0.8267
2811	0.8083
2820	0.8095
2829	0.7983
2838	0.785
2847	0.7888
2856	0.7796
2865	0.7174
2874	0.6579
2883	0.6726
2892	0.6397
2901	0.6593
2910	0.6912
2919	0.6637
2928	0.5178
2937	0.5253
2946	0.6032
2955	0.5088
2964	0.4792
2973	0.6438
2982	0.6593
2991	0.6847
3000	0.7063
3009	0.7237
3018	0.7401
3027	0.7593
3036	0.7769
3045	0.7993
3054	0.815
3063	0.8269
3072	0.8402
3081	0.8527
3090	0.8624
3099	0.8695
3108	0.8741
3117	0.8773
3126	0.8794
3135	0.8809
3144	0.8821
3153	0.8828
3162	0.8836
3171	0.8841
3180	0.8847
3189	0.8849
3198	0.8851
3207	0.8848
3216	0.8844
3225	0.8839
3234	0.8831
3243	0.8816
3252	0.8801
3261	0.8776
3270	0.8722
3279	0.8608
3288	0.8329
3297	0.7938
3306	0.6556
3315	0.45
3324	0.2724
3333	0.4152
3342	0.4385
3351	0.3179
3360	0.5604
3369	0.7914
3378	0.8587
3387	0.8602
3396	0.8618
3405	0.8791
3414	0.8878
3423	0.8896
3432	0.891
3441	0.8911
3450	0.891
3459	0.8904
3468	0.8899
3477	0.8901
3486	0.8903
3495	0.8903
3504	0.8902
3513	0.8901
3522	0.8896
3531	0.889
3540	0.8884
3549	0.8875
3558	0.8853
3567	0.8856
3576	0.8845
3585	0.8832
3594	0.8819
3603	0.8807
3612	0.8796
3621	0.8786
3630	0.8784
3639	0.8781
3648	0.8776
3657	0.877
3666	0.8777
3675	0.8793
3684	0.8782
3693	0.8801
3702	0.8839
3711	0.8863
3720	0.8872
3729	0.8872
3738	0.8871
3747	0.8871
3756	0.8873
3765	0.8875
3774	0.8875
3783	0.887
3792	0.8862
