Infrared Spectrum: 1-Propene, 3-bromo-
Formula: C 3 H 5 Br
CAS: 106-95-6
State: gas
Origin: Sadtler Research Labs Under US-EPA Contract
1/CM	ABSORBANCE
450	0.00102656
462	0.000741403
474	0.0097523
486	0.00604529
498	0.00895387
510	0.0222421
522	0.0638177
534	0.0978082
546	0.0878277
558	0.0264624
570	0.0140296
582	0.0124898
594	0.0212155
606	0.0217858
618	0.011007
630	0.025664
642	0.0320514
654	0.0539513
666	0.107846
678	0.266335
690	0.414159
702	0.36996
714	0.0857176
726	0.0443131
738	0.0207593
750	0.0199038
762	0.0172804
774	0.0131742
786	0.0133453
798	0.00946715
810	0.00752809
822	0.0127749
834	0.0151702
846	0.0233257
858	0.0411194
870	0.0502443
882	0.0627911
894	0.0922191
906	0.197669
918	0.445184
930	0.523373
942	0.33443
954	0.217801
966	0.167785
978	0.200692
990	0.165105
1002	0.12467
1014	0.0746536
1026	0.0454537
1038	0.0293139
1050	0.0235538
1062	0.0301124
1074	0.0309108
1086	0.0281163
1098	0.0236679
1110	0.0206452
1122	0.0173374
1134	0.0171093
1146	0.0186491
1158	0.027603
1170	0.0415186
1182	0.069977
1194	0.157577
1206	0.558961
1218	0.480714
1230	0.277627
1242	0.095641
1254	0.0649583
1266	0.0428303
1278	0.0279452
1290	0.0288577
1302	0.0280022
1314	0.0236679
1326	0.0172234
1338	0.0148281
1350	0.0161398
1362	0.0172804
1374	0.0254929
1386	0.0390092
1398	0.0706044
1410	0.108644
1422	0.118853
1434	0.0776762
1446	0.075452
1458	0.0576583
1470	0.0464803
1482	0.0298842
1494	0.018478
1506	0.00998043
1518	0.014657
1530	0.0155124
1542	0.00490467
1554	0.0090109
1566	0.00958121
1578	0.00729997
1590	0.0118624
1602	0.0175085
1614	0.0248085
1626	0.0410053
1638	0.0645591
1650	0.0686653
1662	0.0373553
1674	0.0176226
1686	0.00923902
1698	0.00826949
1710	0.0100375
1722	0.0100375
1734	0.00587419
1746	0.0104937
1758	0.0119195
1770	0.00992339
1782	0.00929605
1794	0.00695778
1806	0.00969527
1818	0.0112351
1830	0.0160257
1842	0.0461951
1854	0.0559474
1866	0.0513279
1878	0.0266905
1890	0.016482
1902	0.0112921
1914	0.00923902
1926	0.00941012
1938	0.0120335
1950	0.0134023
1962	0.0119765
1974	0.00986636
1986	0.00895387
1998	0.00747106
2010	0.00712888
2022	0.00667263
2034	0.00707184
2046	0.00718591
2058	0.00741403
2070	0.00787028
2082	0.00627341
2094	0.00615935
2106	0.00558904
2118	0.00558904
2130	0.00558904
2142	0.00547498
2154	0.00627341
2166	0.00638747
2178	0.00598826
2190	0.00524685
2202	0.00444842
2214	0.00422029
2226	0.0040492
2238	0.0040492
2250	0.00456248
2262	0.00473357
2274	0.0057031
2286	0.00581716
2298	0.00627341
2310	0.00752809
2322	0.00844059
2334	0.00923902
2346	0.00952418
2358	0.0120906
2370	0.01095
2382	0.00792731
2394	0.00672966
2406	0.00769919
2418	0.00838356
2430	0.00667263
2442	0.00307967
2454	0.00302264
2466	0.00245233
2478	0.00262343
2490	0.00273749
2502	0.00268046
2514	0.0016539
2526	0.00148281
2538	0.000969527
2550	0.00148281
2562	0.00148281
2574	0.00153984
2586	0.00193905
2598	0.00250936
2610	0.00273749
2622	0.00342186
2634	0.00370702
2646	0.00553201
2658	0.00678669
2670	0.00615935
2682	0.00364998
2694	0.00336483
2706	0.00325077
2718	0.00273749
2730	0.00285155
2742	0.00285155
2754	0.00302264
2766	0.00307967
2778	0.00313671
2790	0.00325077
2802	0.00359295
2814	0.00507576
2826	0.00889684
2838	0.0114062
2850	0.0155124
2862	0.0177366
2874	0.0197327
2886	0.0175655
2898	0.0151132
2910	0.0131742
2922	0.0173374
2934	0.0277741
2946	0.0509857
2958	0.0797293
2970	0.120735
2982	0.138585
2994	0.128491
3006	0.122217
3018	0.102599
3030	0.0853184
3042	0.0577724
3054	0.0500162
3066	0.0655857
3078	0.0870293
3090	0.137559
3102	0.136703
3114	0.0968386
3126	0.0426592
3138	0.0204171
3150	0.0108929
3162	0.00752809
3174	0.00473357
3186	0.00461951
3198	0.0033078
3210	0.00376405
3222	0.00336483
3234	0.00359295
3246	0.00342186
3258	0.00359295
3270	0.00359295
3282	0.00307967
3294	0.00313671
3306	0.00416326
3318	0.00376405
3330	0.0047906
3342	0.00399217
3354	0.00364998
3366	0.00444842
3378	0.00416326
3390	0.00364998
3402	0.0040492
3414	0.00399217
3426	0.00501873
3438	0.00444842
3450	0.00507576
3462	0.00439139
3474	0.00513279
3486	0.00518982
3498	0.00530388
3510	0.00450545
3522	0.00507576
3534	0.00467654
3546	0.00439139
3558	0.00456248
3570	0.00285155
3582	0.00513279
3594	0.00473357
3606	0.00473357
3618	0.00387811
3630	0.00176796
3642	0.00530388
3654	0.00359295
3666	0.00513279
3678	0.00119765
3690	0.00205312
3702	0.00325077
3714	0.00182499
3726	0.00370702
3738	0.000741403
3750	0.000513279
3762	0.0040492
3774	0.00490467
3786	0.00541795
3798	0.00279452
3810	0.00319374
3822	0.00268046
3834	0.0023953
3846	0.00553201
3858	0.00262343
3870	0.00456248
3882	0.00524685
3894	0.00564607
3906	0.00444842
3918	0.00530388
3930	0.00633044
3942	0.00638747
3954	0
3966	0.000513279
