Infrared Spectrum: Propene, 3-bromo-
Formula: C3 H5 Br
CAS: 106-95-6
State: GAS (70 mmHg, N2 ADDED, TOTAL PRESSURE 600 mmHg)
Boiling point: 70 C
Class: COBLENTZ
Instrument: DOW KBr FOREPRISM-GRATING
Instrument parameters: GRATING CHANGED AT 5.0, 7.5, 15.0 MICRON
Sampling: TRANSMISSION
Path length: 5 CM
Resolution: 2
Origin: DOW CHEMICAL COMPANY
1/CM	TRANSMITTANCE
453	0.928
462	0.9174
471	0.9028
480	0.8852
489	0.8987
498	0.9115
507	0.9127
516	0.8922
525	0.8416
534	0.6991
543	0.6061
552	0.5965
561	0.8651
570	0.9057
579	0.9159
588	0.9051
597	0.9017
606	0.8932
615	0.9177
624	0.9144
633	0.9015
642	0.883
651	0.8703
660	0.8439
669	0.7941
678	0.5348
687	0.2076
696	0.1966
705	0.213
714	0.7133
723	0.7568
732	0.8022
741	0.8383
750	0.864
759	0.8727
768	0.8766
777	0.8784
786	0.8913
795	0.8999
804	0.9058
813	0.904
822	0.8969
831	0.8903
840	0.8854
849	0.8734
858	0.8253
867	0.804
876	0.7894
885	0.8352
894	0.773
903	0.6492
912	0.3705
921	0.1379
930	0.1156
939	0.2422
948	0.4378
957	0.6282
966	0.6343
975	0.4982
984	0.5111
993	0.4855
1002	0.6335
1011	0.7371
1020	0.8146
1029	0.8592
1038	0.8813
1047	0.8899
1056	0.8781
1065	0.8428
1074	0.8369
1083	0.851
1092	0.8802
1101	0.8937
1110	0.9051
1119	0.9101
1128	0.9096
1137	0.9075
1146	0.9072
1155	0.8956
1164	0.8803
1173	0.8526
1182	0.7995
1191	0.7184
1200	0.4904
1209	0.0851
1218	0.149
1227	0.4277
1236	0.7436
1245	0.7681
1254	0.8029
1263	0.8328
1272	0.8752
1281	0.8753
1290	0.8631
1299	0.8523
1308	0.8566
1317	0.8731
1326	0.8857
1335	0.8958
1344	0.8961
1353	0.906
1362	0.901
1371	0.8776
1380	0.8532
1389	0.8228
1398	0.7695
1407	0.6427
1416	0.6229
1425	0.6092
1434	0.7364
1443	0.7117
1452	0.6696
1461	0.7482
1470	0.7879
1479	0.8345
1488	0.8704
1497	0.8883
1506	0.908
1515	0.8865
1524	0.8771
1533	0.8675
1542	0.8964
1551	0.8916
1560	0.9181
1569	0.9024
1578	0.8962
1587	0.8936
1596	0.8877
1605	0.8748
1614	0.8654
1623	0.8393
1632	0.7681
1641	0.7129
1650	0.6936
1659	0.7904
1668	0.8593
1677	0.864
1686	0.875
1695	0.8829
1704	0.8896
1713	0.9045
1722	0.891
1731	0.9004
1740	0.8932
1749	0.8907
1758	0.8886
1767	0.8912
1776	0.8878
1785	0.8822
1794	0.8798
1803	0.8789
1812	0.8773
1821	0.8738
1830	0.8628
1839	0.7891
1848	0.7242
1857	0.7007
1866	0.8111
1875	0.84
1884	0.8591
1893	0.8688
1902	0.8757
1911	0.879
1920	0.8786
1929	0.8751
1938	0.8687
1947	0.8627
1956	0.8599
1965	0.8633
1974	0.8698
1983	0.8749
1992	0.8789
2001	0.8803
2010	0.8799
2019	0.8795
2028	0.8792
2037	0.8787
2046	0.878
2055	0.8772
2064	0.8771
2073	0.8772
2082	0.8778
2091	0.8787
2100	0.8796
2109	0.8804
2118	0.8808
2127	0.881
2136	0.8798
2145	0.8783
2154	0.8774
2163	0.8768
2172	0.8771
2181	0.8777
2190	0.8795
2199	0.8814
2208	0.8829
2217	0.8836
2226	0.884
2235	0.8839
2244	0.8838
2253	0.8833
2262	0.8827
2271	0.8828
2280	0.8829
2289	0.8856
2298	0.8893
2307	0.8922
2316	0.896
2325	0.9003
2334	0.902
2343	0.9025
2352	0.9066
2361	0.8998
2370	0.8883
2379	0.8795
2388	0.8754
2397	0.8737
2406	0.8729
2415	0.874
2424	0.8777
2433	0.8826
2442	0.8862
2451	0.8877
2460	0.8866
2469	0.8854
2478	0.8851
2487	0.8857
2496	0.8867
2505	0.8876
2514	0.8885
2523	0.8894
2532	0.8905
2541	0.8912
2550	0.8913
2559	0.8914
2568	0.8914
2577	0.8904
2586	0.8894
2595	0.8885
2604	0.8867
2613	0.8846
2622	0.8825
2631	0.88
2640	0.8774
2649	0.8733
2658	0.8748
2667	0.8778
2676	0.882
2685	0.8848
2694	0.8857
2703	0.8857
2712	0.8853
2721	0.8848
2730	0.8844
2739	0.8845
2748	0.8849
2757	0.8858
2766	0.8867
2775	0.8863
2784	0.8851
2793	0.8839
2802	0.8808
2811	0.8774
2820	0.8737
2829	0.8695
2838	0.8653
2847	0.8603
2856	0.8555
2865	0.8505
2874	0.8457
2883	0.8487
2892	0.8624
2901	0.8783
2910	0.8797
2919	0.8712
2928	0.847
2937	0.8068
2946	0.741
2955	0.6731
2964	0.613
2973	0.5558
2982	0.5383
2991	0.5813
3000	0.6243
3009	0.6597
3018	0.6753
3027	0.731
3036	0.7695
3045	0.7685
3054	0.7423
3063	0.7106
3072	0.6634
3081	0.5963
3090	0.5107
3099	0.5159
3108	0.6253
3117	0.7576
3126	0.8251
3135	0.8547
3144	0.8626
3153	0.8668
3162	0.8695
3171	0.8708
3180	0.8716
3189	0.8723
3198	0.8726
3207	0.8727
3216	0.8728
3225	0.8725
3234	0.8722
3243	0.8719
3252	0.8711
3261	0.8701
3270	0.8691
3279	0.8681
3288	0.8668
3297	0.8655
3306	0.8643
3315	0.8631
3324	0.8619
3333	0.8606
3342	0.8594
3351	0.8581
3360	0.8568
3369	0.8555
3378	0.8545
3387	0.8535
3396	0.8525
3405	0.8535
3414	0.8554
3423	0.8574
3432	0.8595
3441	0.8614
3450	0.8633
3459	0.8651
3468	0.8665
3477	0.8677
3486	0.8691
3495	0.8704
3504	0.8717
3513	0.873
3522	0.8741
3531	0.8739
3540	0.8738
3549	0.8732
3558	0.8741
3567	0.8761
3576	0.8766
3585	0.8755
3594	0.8764
3603	0.8758
3612	0.8741
3621	0.8776
3630	0.8785
3639	0.8721
3648	0.8767
3657	0.8774
3666	0.8748
3675	0.8742
3684	0.8772
3693	0.8787
3702	0.8813
3711	0.8857
3720	0.8864
3729	0.8847
3738	0.8803
3747	0.8778
3756	0.8775
3765	0.8786
3774	0.8799
3783	0.8746
