Infrared Spectrum: 1-PROPENE, 3-BROMO-
Formula: C3 H5 Br
CAS: 106-95-6
State: SOLUTION (10% IN CCl4 FOR 3800-1340 AND 10% IN CS2 FOR 1340-400 CM^-^1)
Class: COBLENTZ III
Instrument: DOW KBr FOREPRISM-GRATING
Instrument parameters: BLAZED AT 3.5, 12.0, 20.0 MICRON, CHANGED AT 5.0, 7.5, 14.9 MICRON
Sampling: TRANSMISSION
Path length: 0.011, 0.011 CM
Resolution: 4
Origin: DOW CHEMICAL COMPANY
1/CM	TRANSMITTANCE
381.671	0.746
390.372	0.749
399.072	0.761
407.773	0.831
416.474	0.903
425.174	0.946
433.875	0.964
442.576	0.975
451.276	0.979
459.977	0.982
468.678	1.001
477.379	1.008
486.079	1.008
494.78	1.005
503.481	0.997
512.181	0.986
520.882	0.957
529.583	0.889
538.283	0.765
546.984	0.895
555.685	0.976
564.385	1.006
573.086	1.019
581.787	1.023
590.487	1.027
599.188	1.027
607.889	1.029
616.59	1.025
625.29	1.016
633.991	1
642.692	0.96
651.392	0.915
660.093	0.911
668.794	0.856
677.494	0.648
686.195	0.22
694.896	0.415
703.596	0.822
712.297	0.934
720.998	0.972
729.698	0.994
738.399	1.006
747.1	1.014
755.8	1.014
764.501	1.017
773.202	1.017
781.903	1.019
790.603	1.014
799.304	1.019
808.005	1.017
816.705	1.02
825.406	1.021
834.107	1.009
842.807	0.967
851.508	0.871
860.209	0.811
868.909	0.76
877.61	0.895
886.311	0.94
895.011	0.955
903.712	0.915
912.413	0.723
921.114	0.119
929.814	0.254
938.515	0.67
947.216	0.829
955.916	0.903
964.617	0.871
973.318	0.716
982.018	0.362
990.719	0.767
999.42	0.934
1008.12	0.97
1016.82	0.985
1025.52	0.99
1034.22	0.998
1042.92	0.997
1051.62	0.994
1060.32	0.986
1069.03	0.934
1077.73	0.967
1086.43	1.001
1095.13	1.012
1103.83	1.017
1112.53	1.02
1121.23	1.017
1129.93	1.02
1138.63	1.014
1147.33	1.002
1156.03	1.005
1164.73	0.998
1173.43	0.974
1182.13	0.915
1190.83	0.807
1199.54	0.713
1208.24	0.1
1216.94	0.632
1225.64	0.882
1234.34	0.929
1243.04	0.912
1251.74	0.92
1260.44	0.967
1269.14	0.982
1277.84	0.983
1286.54	0.976
1295.24	0.96
1303.94	0.98
1312.64	1.001
1321.35	1.005
1330.05	1.004
1338.75	1.005
1347.45	1.002
1356.15	1.001
1364.85	0.989
1373.55	0.971
1382.25	0.957
1390.95	0.949
1399.65	0.911
1408.35	0.685
1417.05	0.805
1425.75	0.903
1434.45	0.889
1443.15	0.67
1451.86	0.828
1460.56	0.926
1469.26	0.953
1477.96	0.964
1486.66	0.959
1495.36	0.925
1504.06	0.884
1512.76	0.813
1521.46	0.758
1530.16	0.705
1538.86	0.617
1547.56	0.513
1556.26	0.521
1564.96	0.618
1573.66	0.696
1582.37	0.72
1591.07	0.762
1599.77	0.839
1608.47	0.919
1617.17	0.953
1625.87	0.965
1634.57	0.942
1643.27	0.929
1651.97	0.976
1660.67	1.01
1669.37	1.002
1678.07	1.008
1686.77	1.008
1695.47	1
1704.18	1.005
1712.88	1.008
1721.58	1
1730.28	0.987
1738.98	0.991
1747.68	1.008
1756.38	1.02
1765.08	1.028
1773.78	1.029
1782.48	1.029
1791.18	1.024
1799.88	1.028
1808.58	1.027
1817.28	1.025
1825.98	1.017
1834.69	1.006
1843.39	0.972
1852.09	0.933
1860.79	0.938
1869.49	0.965
1878.19	1.002
1886.89	1.016
1895.59	1.019
1904.29	1.023
1912.99	1.025
1921.69	1.027
1930.39	1.027
1939.09	1.023
1947.79	1.024
1956.5	1.02
1965.2	1.012
1973.9	1.009
1982.6	1.006
1991.3	1.004
2000	1.014
2008.7	1.051
2017.4	1.055
2026.1	1.061
2034.8	1.072
2043.5	1.057
2052.2	1.057
2060.9	1.054
2069.6	1.054
2078.3	1.054
2087.01	1.057
2095.71	1.057
2104.41	1.058
2113.11	1.057
2121.81	1.055
2130.51	1.054
2139.21	1.05
2147.91	1.047
2156.61	1.05
2165.31	1.05
2174.01	1.046
2182.71	1.046
2191.41	1.0489
2200.11	1.046
2208.81	1.046
2217.52	1.044
2226.22	1.0459
2234.92	1.046
2243.62	1.046
2252.32	1.0362
2261.02	1.036
2269.72	1.0282
2278.42	1.023
2287.12	1.019
2295.82	1.017
2304.52	1.014
2313.22	1.013
2321.92	1.0159
2330.62	1.014
2339.33	1.0131
2348.03	1.013
2356.73	1.0158
2365.43	1.0143
2374.13	1.009
2382.83	1.0206
2391.53	1.0289
2400.23	1.0281
2408.93	1.028
2417.63	1.028
2426.33	1.0289
2435.03	1.035
2443.73	1.035
2452.43	1.04
2461.13	1.0381
2469.84	1.0351
2478.54	1.0322
2487.24	1.0311
2495.94	1.0319
2504.64	1.034
2513.34	1.034
2522.04	1.032
2530.74	1.034
2539.44	1.0349
2548.14	1.032
2556.84	1.032
2565.54	1.0311
2574.24	1.032
2582.94	1.028
2591.65	1.0289
2600.35	1.029
2609.05	1.028
2617.75	1.024
2626.45	1.023
2635.15	1.0227
2643.85	1.023
2652.55	1.016
2661.25	1.0166
2669.95	1.023
2678.65	1.023
2687.35	1.024
2696.05	1.0213
2704.75	1.021
2713.45	1.02
2722.16	1.021
2730.86	1.02
2739.56	1.019
2748.26	1.0225
2756.96	1.0208
2765.66	1.019
2774.36	1.02
2783.06	1.017
2791.76	1.014
2800.46	1.0132
2809.16	1.0104
2817.86	1.0064
2826.56	1.002
2835.26	1
2843.97	0.9914
2852.67	0.9994
2861.37	0.9942
2870.07	0.9802
2878.77	0.9742
2887.47	0.9898
2896.17	0.995
2904.87	0.991
2913.57	0.9852
2922.27	0.9804
2930.97	0.9766
2939.67	0.9614
2948.37	0.9376
2957.07	0.9047
2965.77	0.8141
2974.48	0.795
2983.18	0.846
2991.88	0.8229
3000.58	0.914
3009.28	0.9244
3017.98	0.9175
3026.68	0.918
3035.38	0.9408
3044.08	0.959
3052.78	0.9514
3061.48	0.9153
3070.18	0.9181
3078.88	0.9252
3087.58	0.837
3096.28	0.7783
3104.99	0.8897
3113.69	0.9635
3122.39	0.9822
3131.09	0.9905
3139.79	1.0007
3148.49	1
3157.19	1.004
3165.89	1.002
3174.59	1.0057
3183.29	1.0075
3191.99	1.0068
3200.69	1.006
3209.39	1.006
3218.09	1.008
3226.8	1.01
3235.5	1.008
3244.2	1.0074
3252.9	1.0028
3261.6	1.0057
3270.3	1.005
3279	1.005
3287.7	1.0047
3296.4	1.005
3305.1	1.005
3313.8	1.006
3322.5	1.0066
3331.2	1.0053
3339.9	1.0047
3348.6	1.0066
3357.31	1.006
3366.01	1.006
3374.71	1.0087
3383.41	1.0093
3392.11	1.008
3400.81	1.008
3409.51	1.008
3418.21	1.006
3426.91	1.005
3435.61	1.004
3444.31	1.004
3453.01	1.001
3461.71	1.001
3470.41	0.998
3479.12	1
3487.82	1.001
3496.52	1
3505.22	0.9977
3513.92	0.998
3522.62	0.998
3531.32	1
3540.02	0.998
3548.72	1
3557.42	0.997
3566.12	0.9963
3574.82	0.9957
3583.52	0.993
3592.22	0.9993
3600.92	0.9957
3609.63	0.9917
3618.33	0.9957
3627.03	0.9988
3635.73	0.9944
3644.43	0.9896
3653.13	0.9946
3661.83	0.9934
3670.53	0.9903
3679.23	0.9864
3687.93	0.993
3696.63	0.9871
3705.33	0.9885
3714.03	0.9864
3722.73	0.9812
3731.43	0.9839
3740.14	0.9786
3748.84	0.989
3757.54	0.9864
3766.24	0.9864
3774.94	0.987
3783.64	0.983
3792.34	0.982
