Infrared Spectrum: Ketone, cyclopropyl methyl,
Formula: C5 H8 O
CAS: 765-43-5
State: LIQUID (NEAT)
Class: COBLENTZ III
Instrument: PERKIN-ELMER 21 (GRATING)
Instrument parameters: FILTER AT ABOUT 10 MICRONS
Path length: CAPILLARY
Resolution: 2
Origin: ABBOTT LABORATORIES
1/CM	TRANSMITTANCE
668	0.7524
677	0.7684
686	0.7857
695	0.8003
704	0.8096
713	0.8157
722	0.8175
731	0.8171
740	0.809
749	0.8158
758	0.8224
767	0.8362
776	0.8333
785	0.8219
794	0.7915
803	0.7405
812	0.6679
821	0.6896
830	0.7862
839	0.7929
848	0.7909
857	0.7921
866	0.7851
875	0.761
884	0.6469
893	0.3619
902	0.643
911	0.6676
920	0.77
929	0.7735
938	0.7236
947	0.6771
956	0.5496
965	0.5082
974	0.6601
983	0.7505
992	0.7676
1001	0.7684
1010	0.7203
1019	0.5195
1028	0.5195
1037	0.6764
1046	0.7019
1055	0.6632
1064	0.6563
1073	0.681
1082	0.5215
1091	0.5845
1100	0.705
1109	0.748
1118	0.7579
1127	0.7549
1136	0.7442
1145	0.7039
1154	0.5509
1163	0.2625
1172	0.2794
1181	0.5662
1190	0.3933
1199	0.6377
1208	0.7504
1217	0.7751
1226	0.7786
1235	0.7662
1244	0.7207
1253	0.5816
1262	0.7494
1271	0.796
1280	0.798
1289	0.7965
1298	0.7922
1307	0.7797
1316	0.7541
1325	0.7149
1334	0.6484
1343	0.4883
1352	0.4923
1361	0.5052
1370	0.3124
1379	0.1212
1388	0.3449
1397	0.5426
1406	0.4944
1415	0.4549
1424	0.4852
1433	0.51
1442	0.5352
1451	0.6703
1460	0.7223
1469	0.7475
1478	0.7581
1487	0.7956
1496	0.8101
1505	0.8144
1514	0.8126
1523	0.8092
1532	0.8068
1541	0.8065
1550	0.8097
1559	0.8151
1568	0.8169
1577	0.8158
1586	0.8121
1595	0.8023
1604	0.787
1613	0.7715
1622	0.7549
1631	0.7389
1640	0.7197
1649	0.6792
1658	0.6372
1667	0.5342
1676	0.3563
1685	0.1804
1694	0.1105
1703	0.1916
1712	0.4147
1721	0.6047
1730	0.6584
1739	0.7299
1748	0.7612
1757	0.7845
1766	0.8065
1775	0.8234
1784	0.8382
1793	0.8513
1802	0.8613
1811	0.8619
1820	0.8602
1829	0.8579
1838	0.856
1847	0.8551
1856	0.8577
1865	0.8615
1874	0.865
1883	0.867
1892	0.8664
1901	0.8635
1910	0.8606
1919	0.8582
1928	0.8586
1937	0.8613
1946	0.8645
1955	0.8677
1964	0.8701
1973	0.8714
1982	0.872
1991	0.8727
2000	0.8745
2009	0.8739
2018	0.8723
2027	0.8686
2036	0.8644
2045	0.8602
2054	0.8572
2063	0.8565
2072	0.8563
2081	0.8568
2090	0.8573
2099	0.8575
2108	0.8578
2117	0.8592
2126	0.8627
2135	0.8672
2144	0.8669
2153	0.866
2162	0.8658
2171	0.8662
2180	0.8673
2189	0.8681
2198	0.8684
2207	0.8687
2216	0.8694
2225	0.8702
2234	0.871
2243	0.8717
2252	0.8724
2261	0.8731
2270	0.874
2279	0.8749
2288	0.8757
2297	0.8761
2306	0.8763
2315	0.8763
2324	0.8755
2333	0.8742
2342	0.872
2351	0.8704
2360	0.8706
2369	0.8708
2378	0.871
2387	0.8719
2396	0.8728
2405	0.8732
2414	0.8724
2423	0.8716
2432	0.8703
2441	0.8684
2450	0.8666
2459	0.8651
2468	0.8644
2477	0.8638
2486	0.8632
2495	0.8628
2504	0.8624
2513	0.862
2522	0.8617
2531	0.8613
2540	0.8614
2549	0.8617
2558	0.862
2567	0.8623
2576	0.863
2585	0.8636
2594	0.8643
2603	0.8649
2612	0.8651
2621	0.8652
2630	0.8653
2639	0.8654
2648	0.8655
2657	0.8651
2666	0.8642
2675	0.8633
2684	0.8624
2693	0.8614
2702	0.8605
2711	0.8596
2720	0.8587
2729	0.8572
2738	0.8553
2747	0.8528
2756	0.8494
2765	0.844
2774	0.8387
2783	0.8335
2792	0.828
2801	0.8226
2810	0.8171
2819	0.8109
2828	0.8039
2837	0.797
2846	0.79
2855	0.7834
2864	0.7725
2873	0.7575
2882	0.7429
2891	0.7355
2900	0.7355
2909	0.7373
2918	0.7382
2927	0.7385
2936	0.7372
2945	0.7327
2954	0.7229
2963	0.6882
2972	0.6509
2981	0.614
2990	0.5858
2999	0.6037
3008	0.6548
3017	0.7057
3026	0.7404
3035	0.7614
3044	0.7752
3053	0.7754
3062	0.7753
3071	0.7751
3080	0.7782
3089	0.7978
3098	0.8205
3107	0.8284
3116	0.8327
3125	0.8357
3134	0.8379
3143	0.8395
3152	0.8409
3161	0.8419
3170	0.8429
3179	0.8436
3188	0.844
3197	0.8445
3206	0.8447
3215	0.8444
3224	0.8441
3233	0.8438
3242	0.8429
3251	0.8415
3260	0.8403
3269	0.8389
3278	0.8375
3287	0.8357
3296	0.8338
3305	0.8319
3314	0.8296
3323	0.8262
3332	0.8229
3341	0.8203
3350	0.8185
3359	0.8177
3368	0.8192
3377	0.823
3386	0.8238
3395	0.8226
3404	0.8201
3413	0.8168
3422	0.8129
3431	0.8093
3440	0.8063
3449	0.8039
3458	0.8026
3467	0.803
3476	0.8036
3485	0.8049
3494	0.8075
3503	0.8101
3512	0.8133
3521	0.8166
3530	0.8199
3539	0.8231
3548	0.8263
3557	0.8296
3566	0.8331
3575	0.8367
3584	0.8403
3593	0.844
3602	0.848
3611	0.8521
3620	0.8563
3629	0.8613
3638	0.8666
3647	0.8716
3656	0.8763
3665	0.8786
3674	0.8803
3683	0.8809
3692	0.8812
3701	0.8816
3710	0.8813
3719	0.8809
3728	0.8806
3737	0.8801
3746	0.8798
3755	0.8793
3764	0.8789
3773	0.8785
3782	0.8781
3791	0.8776
3800	0.8771
3809	0.8767
3818	0.8762
3827	0.8756
3836	0.8752
3845	0.875
3854	0.8748
3863	0.8747
3872	0.8753
3881	0.8763
3890	0.8773
3899	0.8779
3908	0.8785
3917	0.8792
3926	0.8791
3935	0.879
3944	0.8788
3953	0.8787
3962	0.8785
3971	0.8784
3980	0.8783
3989	0.8781
3998	0.8781
