Infrared Spectrum: Ethanone, 1-cyclopropyl-
Formula: C 5 H 8 O
CAS: 765-43-5
State: gas
Origin: Sadtler Research Labs Under US-EPA Contract
1/CM	ABSORBANCE
450	0.00478296
462	0.0113319
474	0.00757915
486	0.0158206
498	0.00662256
510	0.00147168
522	0.00949234
534	0.00206035
546	0.00441504
558	0.0145696
570	0.0581314
582	0.0908027
594	0.077484
606	0.0186903
618	0.00978667
630	0.00757915
642	0.0105961
654	0.00485654
666	0.00831499
678	0.00676973
690	0.00654898
702	0.0111848
714	0.00728482
726	0.0142017
738	0.0116263
750	0.0121414
762	0.00956592
774	0.0108168
786	0.022296
798	0.0412806
810	0.0593087
822	0.0728482
834	0.0403976
846	0.0335543
858	0.0224431
870	0.0251657
882	0.0895517
894	0.135983
906	0.147757
918	0.0629143
930	0.0524654
942	0.0857254
954	0.149743
966	0.17307
978	0.118838
990	0.0559974
1002	0.0345845
1014	0.052539
1026	0.0866084
1038	0.0947762
1050	0.0831499
1062	0.065269
1074	0.070052
1086	0.136572
1098	0.14084
1110	0.0826348
1122	0.0398825
1134	0.0520239
1146	0.128183
1158	0.343269
1170	0.440547
1182	0.393895
1194	0.207507
1206	0.150479
1218	0.0579106
1230	0.0292864
1242	0.0462843
1254	0.055188
1266	0.0437825
1278	0.0195733
1290	0.0171451
1302	0.0193526
1314	0.0289185
1326	0.0421636
1338	0.0774104
1350	0.123106
1362	0.256882
1374	0.560857
1386	0.573219
1398	0.350407
1410	0.118691
1422	0.130317
1434	0.11928
1446	0.105078
1458	0.0865348
1470	0.0592351
1482	0.0426051
1494	0.0292128
1506	0.0259752
1518	0.026711
1530	0.0239884
1542	0.0296544
1554	0.0270053
1566	0.0192054
1578	0.0179545
1590	0.0133923
1602	0.0138338
1614	0.0158206
1626	0.0188375
1638	0.023694
1650	0.0243563
1662	0.0335543
1674	0.0526126
1686	0.110229
1698	0.278883
1710	0.587495
1722	0.713323
1734	0.647834
1746	0.24864
1758	0.0778519
1770	0.0399561
1782	0.0336279
1794	0.0239148
1806	0.0145696
1818	0.0104489
1830	0.0100074
1842	0.0120678
1854	0.0119206
1866	0.0114791
1878	0.0119206
1890	0.0110376
1902	0.0119942
1914	0.013613
1926	0.013981
1938	0.0112584
1950	0.00905083
1962	0.00927158
1974	0.00706406
1986	0.00610747
1998	0.00529805
2010	0.00456221
2022	0.00544522
2034	0.00448862
2046	0.00654898
2058	0.00883008
2070	0.00927158
2082	0.0115527
2094	0.0141281
2106	0.0161149
2118	0.0149376
2130	0.0114055
2142	0.0077999
2154	0.00559238
2166	0.00654898
2178	0.00588672
2190	0.00581314
2202	0.00581314
2214	0.00426787
2226	0.00515088
2238	0.00566597
2250	0.00559238
2262	0.00662256
2274	0.00603389
2286	0.00603389
2298	0.00493013
2310	0.0055188
2322	0.00662256
2334	0.00706406
2346	0.00831499
2358	0.00537163
2370	0.00662256
2382	0.00441504
2394	0.00264902
2406	0.00316411
2418	0.00294336
2430	0.00250186
2442	0.00242827
2454	0.00338486
2466	0.00434146
2478	0.00441504
2490	0.00588672
2502	0.00522446
2514	0.00470938
2526	0.00566597
2538	0.0036792
2550	0.00294336
2562	0.00257544
2574	0.00154526
2586	0.00309053
2598	0.00264902
2610	0.00331128
2622	0.00286978
2634	0.00220752
2646	0.000956592
2658	0.000515088
2670	0.00220752
2682	0.000588672
2694	0.00125093
2706	0.0013981
2718	0.000147168
2730	0.00103018
2742	0.00103018
2754	0.0013981
2766	0.00198677
2778	0.00154526
2790	0.00286978
2802	0.00198677
2814	0.0032377
2826	0.00478296
2838	0.0073584
2850	0.0103018
2862	0.0106697
2874	0.0122149
2886	0.0122149
2898	0.0142753
2910	0.0216337
2922	0.0295072
2934	0.0331128
2946	0.0331864
2958	0.0339222
2970	0.0423108
2982	0.0356882
2994	0.052539
3006	0.119648
3018	0.191245
3030	0.185285
3042	0.119795
3054	0.0798386
3066	0.0538635
3078	0.0416485
3090	0.054305
3102	0.0606332
3114	0.0558503
3126	0.0192054
3138	0.00728482
3150	0.00404712
3162	0.00389995
3174	0.00279619
3186	0.00036792
3198	0.00213394
3210	0.00110376
3222	7.3584e-05
3234	0.00117734
3246	0.000220752
3258	0.00073584
3270	7.3584e-05
3282	0.000956592
3294	0.00073584
3306	7.3584e-05
3318	0.00198677
3330	0.000441504
3342	0.00161885
3354	0.00220752
3366	0.00103018
3378	0.00286978
3390	0.00250186
3402	0.00721123
3414	0.0126564
3426	0.0136866
3438	0.0121414
3450	0.00618106
3462	0.00360562
3474	7.3584e-05
3486	0.000441504
3498	0.00161885
3510	7.3584e-05
3522	0.00110376
3534	0.00110376
3546	0.00103018
3558	0.00147168
3570	0.00235469
3582	0.00154526
3594	0.00147168
3606	0.00117734
3618	0.00257544
3630	0.00316411
3642	0.00235469
3654	0.00147168
3666	0.00103018
3678	0.00294336
3690	0.0013981
3702	0.00242827
3714	0.00132451
3726	0.00125093
3738	0.00485654
3750	0.00257544
3762	0.00147168
3774	0.000515088
3786	0.000441504
3798	0.00103018
3810	0.000515088
3822	0.00345845
3834	0.00220752
3846	0.00345845
3858	0.0041207
3870	0.00250186
3882	0.00493013
3894	0.00257544
3906	0.00441504
3918	0.00404712
3930	0.00147168
3942	0.00250186
3954	7.3584e-05
3966	7.3584e-05
