Infrared Spectrum: 2,2,2-Trifluoroethylamine
Formula: C 2 H 4 F 3 N
CAS: 753-90-2
State: gas
Instrument: HP-GC/MS/IRD
Origin: NIST Mass Spectrometry Data Center
1/CM	ABSORBANCE
550	0.0004356
562	0.0002988
574	0.0003042
586	9.72e-05
598	0.0001548
610	0.0003654
622	0.0006606
634	0.0010278
646	0.0013122
658	0.0012852
670	0.0011484
682	0.0010782
694	0.0012312
706	0.0014634
718	0.002007
730	0.0026964
742	0.0038952
754	0.0044226
766	0.0038142
778	0.002304
790	0.0012798
802	0.0012096
814	0.0017352
826	0.002421
838	0.0025092
850	0.0018936
862	0.001341
874	0.0014076
886	0.0010926
898	0.0009036
910	0.0007992
922	0.0008388
934	0.0008406
946	0.0007614
958	0.000612
970	0.0006048
982	0.0005742
994	0.0005436
1006	0.000576
1018	0.0006876
1030	0.0008406
1042	0.0012384
1054	0.002241
1066	0.0039384
1078	0.0062748
1090	0.008541
1102	0.0082944
1114	0.0069282
1126	0.0061668
1138	0.0081522
1150	0.012771
1162	0.0172656
1174	0.0165906
1186	0.0105264
1198	0.0050562
1210	0.0038358
1222	0.005283
1234	0.0085986
1246	0.013833
1258	0.017028
1270	0.0153954
1282	0.0091368
1294	0.0047142
1306	0.002457
1318	0.001863
1330	0.0016218
1342	0.0016524
1354	0.0017604
1366	0.0019998
1378	0.001944
1390	0.0016146
1402	0.0012438
1414	0.0008244
1426	0.0006714
1438	0.0005562
1450	0.0005526
1462	0.0004032
1474	0.000243
1486	0.0001386
1498	8.28e-05
1510	2.52e-05
1522	2.16e-05
1534	3.42e-05
1546	1.98e-05
1558	4.14e-05
1570	0.0001296
1582	0.0001962
1594	0.0003312
1606	0.0006318
1618	0.0010026
1630	0.0012096
1642	0.001062
1654	0.0006282
1666	0.0003744
1678	0.0001746
1690	9.72e-05
1702	6.84e-05
1714	5.22e-05
1726	4.14e-05
1738	5.22e-05
1750	3.06e-05
1762	4.68e-05
1774	5.4e-05
1786	9.18e-05
1798	9.72e-05
1810	9.72e-05
1822	9.9e-05
1834	8.46e-05
1846	9e-05
1858	9.36e-05
1870	3.6e-05
1882	8.64e-05
1894	6.48e-05
1906	4.86e-05
1918	8.28e-05
1930	5.58e-05
1942	9.54e-05
1954	9e-05
1966	7.02e-05
1978	4.5e-05
1990	4.5e-05
2002	4.5e-05
2014	8.46e-05
2026	7.2e-05
2038	7.56e-05
2050	0.0001044
2062	6.66e-05
2074	7.56e-05
2086	8.1e-05
2098	7.38e-05
2110	5.4e-05
2122	9.18e-05
2134	5.76e-05
2146	6.12e-05
2158	6.84e-05
2170	8.46e-05
2182	3.96e-05
2194	7.2e-05
2206	5.22e-05
2218	5.04e-05
2230	5.22e-05
2242	7.74e-05
2254	5.04e-05
2266	9e-06
2278	4.32e-05
2290	7.74e-05
2302	7.74e-05
2314	7.92e-05
2326	6.12e-05
2338	0.000108
2350	3.78e-05
2362	3.6e-05
2374	4.14e-05
2386	4.32e-05
2398	5.76e-05
2410	3.24e-05
2422	3.78e-05
2434	4.32e-05
2446	4.32e-05
2458	4.14e-05
2470	3.24e-05
2482	6.84e-05
2494	5.22e-05
2506	9.36e-05
2518	6.12e-05
2530	8.1e-05
2542	4.68e-05
2554	7.92e-05
2566	1.44e-05
2578	6.3e-05
2590	3.24e-05
2602	7.56e-05
2614	4.32e-05
2626	2.52e-05
2638	3.96e-05
2650	7.92e-05
2662	8.82e-05
2674	1.08e-05
2686	7.02e-05
2698	9.54e-05
2710	6.12e-05
2722	0.000117
2734	0.0001026
2746	8.46e-05
2758	3.42e-05
2770	0.0001638
2782	0.0001224
2794	0.0001872
2806	0.000144
2818	0.0001206
2830	0.0001746
2842	0.0002826
2854	0.0002484
2866	0.0002754
2878	0.0004752
2890	0.0003564
2902	0.000351
2914	0.0003834
2926	0.0005634
2938	0.0009378
2950	0.0013014
2962	0.0015426
2974	0.0012816
2986	0.000918
2998	0.0005274
3010	0.0002754
3022	0.0002268
3034	0.0001206
3046	0.000126
3058	6.84e-05
3070	5.76e-05
3082	7.02e-05
3094	5.04e-05
3106	5.94e-05
3118	8.1e-05
3130	0.0001854
3142	0.000126
3154	8.46e-05
3166	9e-05
3178	0.0001116
3190	0.0001818
3202	0.000117
3214	8.1e-05
3226	0.0001278
3238	0.0001206
3250	0.0001368
3262	0.0001206
3274	0.0001998
3286	0.0001746
3298	0.0001314
3310	0.0001008
3322	0.0001998
3334	0.0001404
3346	0.0001188
3358	0.0001206
3370	0.0002574
3382	0.0002754
3394	0.0002304
3406	0.0002268
3418	0.0002898
3430	0.0003816
3442	0.0005454
3454	0.0004014
3466	0.0003114
3478	0.000189
3490	0.0002106
3502	0.0002268
3514	0.0001116
3526	0.0001782
3538	0.0001728
3550	7.38e-05
3562	9.54e-05
3574	6.3e-05
3586	5.04e-05
3598	7.74e-05
3610	0.00018
3622	0.0001602
3634	0.0001638
3646	0.0001386
3658	9.36e-05
3670	7.56e-05
3682	0.0001062
3694	0.0001422
3706	0.0001296
3718	0.000189
3730	0.0001152
3742	5.58e-05
3754	0.0001224
3766	6.66e-05
3778	0.000135
3790	7.2e-06
3802	5.94e-05
3814	0.0001746
3826	5.04e-05
3838	7.2e-05
