Infrared Spectrum: 1,1-Dibromo-1-propene
Formula: C 3 H 4 Br 2
CAS: 13195-80-7
State: gas
Origin: EPA-IR VAPOR PHASE LIBRARY
1/CM	ABSORBANCE
501.5	0.003383
513.074	0.0008026
524.648	0.0004354
536.222	0.0003951
547.796	0.0003799
559.37	0.000399
570.944	0.00024651
582.518	0.0003926
594.092	0.0005572
605.666	0.0008985
617.24	0.0010678
628.814	0.0008176
640.388	0.0006113
651.962	0.0003771
663.536	0.0003734
675.11	0.0004298
686.684	0.0006025
698.258	0.001163
709.832	0.001623
721.406	0.001423
732.98	0.001463
744.554	0.002323
756.128	0.004173
767.702	0.010113
779.276	0.026283
790.85	0.056243
802.423	0.079743
813.997	0.051743
825.571	0.016193
837.145	0.008673
848.719	0.002713
860.293	0.001453
871.867	0.0010248
883.441	0.0008334
895.015	0.0007094
906.589	0.0007931
918.163	0.0010709
929.737	0.001503
941.311	0.003183
952.885	0.007003
964.459	0.008243
976.033	0.004973
987.607	0.002393
999.181	0.001973
1010.76	0.001723
1022.33	0.001973
1033.9	0.002223
1045.48	0.001613
1057.05	0.001173
1068.63	0.001443
1080.2	0.002703
1091.77	0.007703
1103.35	0.009523
1114.92	0.004633
1126.49	0.001923
1138.07	0.001453
1149.64	0.001343
1161.22	0.0009289
1172.79	0.0008071
1184.36	0.000808
1195.94	0.0007539
1207.51	0.00097
1219.09	0.0009065
1230.66	0.0010392
1242.23	0.0011035
1253.81	0.002213
1265.38	0.008113
1276.96	0.011323
1288.53	0.006613
1300.1	0.002733
1311.68	0.001583
1323.25	0.0011289
1334.83	0.0010749
1346.4	0.001253
1357.97	0.001673
1369.55	0.002253
1381.12	0.002963
1392.7	0.002423
1404.27	0.001573
1415.84	0.001573
1427.42	0.001983
1438.99	0.002593
1450.57	0.002723
1462.14	0.002173
1473.71	0.001653
1485.29	0.001563
1496.86	0.001903
1508.44	0.002223
1520.01	0.002053
1531.58	0.001583
1543.16	0.001433
1554.73	0.001663
1566.31	0.002383
1577.88	0.003543
1589.45	0.004253
1601.03	0.004023
1612.6	0.003883
1624.18	0.004813
1635.75	0.005403
1647.32	0.003773
1658.9	0.001183
1670.47	0.000451
1682.05	0.0003127
1693.62	0.0003052
1705.19	0.00024765
1716.77	0.00024013
1728.34	0.00024587
1739.92	0.0002815
1751.49	0.0003104
1763.06	0.0002877
1774.64	0.000292
1786.21	0.0003275
1797.79	0.0003739
1809.36	0.0006239
1820.93	0.00098
1832.51	0.0010278
1844.08	0.0007132
1855.66	0.0003349
1867.23	0.000209
1878.8	0.00016587
1890.38	0.00018984
1901.95	0.00020541
1913.53	0.00016864
1925.1	0.00014833
1936.67	0.0001406
1948.25	0.0001057
1959.82	7.78e-05
1971.4	0.0001044
1982.97	0.0001161
1994.54	0.0001091
2006.12	0.0001021
2017.69	7.97e-05
2029.27	7.04e-05
2040.84	8e-05
2052.41	0.00016395
2063.99	0.00017496
2075.56	0.0001247
2087.14	0.0001278
2098.71	9.75e-05
2110.28	0.0001049
2121.86	0.0001097
2133.43	8.37e-05
2145.01	9.58e-05
2156.58	8.64e-05
2168.15	0.0001071
2179.73	0.0001286
2191.3	0.0001319
2202.88	0.0001116
2214.45	8.07e-05
2226.02	0.00015039
2237.6	0.00018337
2249.17	0.00017758
2260.74	0.0001205
2272.32	8.2e-05
2283.89	9.09e-05
2295.47	9.2e-05
2307.04	7.21e-05
2318.61	9.26e-05
2330.19	0.00015176
2341.76	0.00022855
2353.34	0.00016725
2364.91	0.00019654
2376.48	0.00020124
2388.06	0.0002163
2399.63	0.00017545
2411.21	0.000158609
2422.78	0.0001311
2434.35	0.0001163
2445.93	0.0001175
2457.5	0.0001354
2469.08	0.00023888
2480.65	0.00023852
2492.22	0.0001296
2503.8	0.0001151
2515.37	9.05e-05
2526.95	0.0001114
2538.52	0.0001316
2550.09	0.000105
2561.67	7.55e-05
2573.24	5.7e-05
2584.82	5e-05
2596.39	6.81e-05
2607.96	1.3e-05
2619.54	2.8e-05
2631.11	7.8e-05
2642.69	6.12e-05
2654.26	8.11e-05
2665.83	0.0001122
2677.41	8.87e-05
2688.98	5.2e-05
2700.56	0.00014954
2712.13	0.00017121
2723.7	0.0002828
2735.28	0.0004678
2746.85	0.0005904
2758.43	0.0004299
2770	0.00022651
2781.57	0.00021065
2793.15	0.0002881
2804.72	0.0004357
2816.3	0.0005238
2827.87	0.000785
2839.44	0.001293
2851.02	0.002433
2862.59	0.004503
2874.17	0.004683
2885.74	0.003203
2897.31	0.002913
2908.89	0.004503
2920.46	0.009823
2932.04	0.013663
2943.61	0.010143
2955.18	0.005133
2966.76	0.003153
2978.33	0.002323
2989.91	0.002243
3001.48	0.002763
3013.05	0.003643
3024.63	0.004483
3036.2	0.005103
3047.78	0.003603
3059.35	0.001823
3070.92	0.001413
3082.5	0.001293
3094.07	0.0011371
3105.65	0.0007861
3117.22	0.0006018
3128.79	0.0005213
3140.37	0.0004176
3151.94	0.0003317
3163.52	0.0003604
3175.09	0.000258
3186.66	0.0002976
3198.24	0.0004102
3209.81	0.000473
3221.39	0.00044
3232.96	0.0003339
3244.53	0.00021308
3256.11	0.00021394
3267.68	0.0002728
3279.26	0.0001459
3290.83	0.00016684
3302.4	0.0001301
3313.98	9.64e-05
3325.55	0.0001336
3337.13	4.7e-05
3348.7	1e-05
3360.27	0.0001082
3371.85	8.06e-05
3383.42	9.48e-05
3395	7.09e-05
3406.57	1.8e-05
3418.14	5.3e-05
3429.72	9.96e-05
3441.29	0.000108
3452.86	8.24e-05
3464.44	0.0001271
3476.01	4.2e-05
3487.59	0.0001068
3499.16	0.000102
3510.73	0.00024011
3522.31	0.0002938
3533.88	0.00016437
3545.46	0.00015078
3557.03	0.0001111
3568.6	9.42e-05
3580.18	0.0001043
3591.75	0.0001411
3603.33	3.9e-05
3614.9	6.5e-05
3626.47	8.61e-05
3638.05	6.22e-05
3649.62	0.00017584
3661.2	7.97e-05
3672.77	0.00017882
3684.34	0.000158684
3695.92	0.0001028
3707.49	0.00017762
3719.07	5.98e-05
3730.64	0.0001029
3742.21	9.77e-05
3753.79	0.0001016
3765.36	0.0001238
3776.94	0.0001428
3788.51	0.000159831
3800.08	0.00016342
3811.66	0.0001093
3823.23	0.000158908
3834.81	0.00023666
3846.38	0.00022474
3857.95	0.00016459
3869.53	0.00019283
3881.1	0.00015078
3892.68	0.0002569
3904.25	0.0001147
3915.82	0.000143
3927.4	0.00014884
3938.97	0.00018183
3950.55	0.00017755
3962.12	0.00024145
3973.69	0.00020903
3985.27	0.00018248
3996.84	6.19e-05
