Infrared Spectrum: Vinyl iodide
Formula: C 2 H 3 I
CAS: 593-66-8
State: gas
Origin: EPA-IR VAPOR PHASE LIBRARY
1/CM	ABSORBANCE
549.8	0.00598
559.445	0.00734
569.09	0.00543
578.734	0.00507
588.379	0.0036784
598.024	0.0036412
607.669	0.0039779
617.313	0.0034195
626.958	0.0030651
636.603	0.00313966
646.248	0.002958
655.893	0.00311951
665.537	0.002623
675.182	0.0030327
684.827	0.00253
694.472	0.002389
704.116	0.00227
713.761	0.00310822
723.406	0.002947
733.051	0.002679
742.695	0.002828
752.34	0.0034266
761.985	0.0032682
771.63	0.002664
781.275	0.002522
790.919	0.0032553
800.564	0.00298
810.209	0.002868
819.854	0.00196
829.498	0.0036488
839.143	0.002918
848.788	0.0030578
858.433	0.0036673
868.078	0.00496
877.722	0.00419
887.367	0.00513
897.012	0.00532
906.657	0.00679
916.301	0.00704
925.946	0.00736
935.591	0.00754
945.236	0.00868
954.88	0.00634
964.525	0.00631
974.17	0.00711
983.815	0.00823
993.46	0.00679
1003.1	0.00534
1012.75	0.0037226
1022.39	0.00421
1032.04	0.002188
1041.68	0.0034399
1051.33	0.002543
1060.97	0.002448
1070.62	0.002236
1080.26	0.0032519
1089.91	0.00106
1099.55	0.002179
1109.2	0.002757
1118.84	0.002552
1128.49	0.0037632
1138.13	0.00319168
1147.78	0.0033631
1157.42	0.0034005
1167.07	0.0039351
1176.71	0.0034101
1186.36	0.00498
1196	0.0039543
1205.64	0.00613
1215.29	0.00859
1224.93	0.01554
1234.58	0.01307
1244.22	0.01505
1253.87	0.01372
1263.51	0.00599
1273.16	0.00481
1282.8	0.0032655
1292.45	0.0036704
1302.09	0.0039344
1311.74	0.0040365
1321.38	0.0037841
1331.03	0.0036116
1340.67	0.0036288
1350.32	0.0040703
1359.96	0.00485
1369.61	0.00456
1379.25	0.00476
1388.9	0.00494
1398.54	0.0034597
1408.18	0.003272
1417.83	0.0034705
1427.47	0.0034066
1437.12	0.0033973
1446.76	0.0033568
1456.41	0.0032673
1466.05	0.00316528
1475.7	0.002899
1485.34	0.003046
1494.99	0.002751
1504.63	0.003421
1514.28	0.0030259
1523.92	0.0030721
1533.57	0.003048
1543.21	0.0036299
1552.86	0.0043
1562.5	0.00678
1572.15	0.01068
1581.79	0.01147
1591.44	0.00981
1601.08	0.01094
1610.73	0.00432
1620.37	0.0032388
1630.01	0.0030563
1639.66	0.0030125
1649.3	0.00297
1658.95	0.002845
1668.59	0.0030007
1678.24	0.002972
1687.88	0.002655
1697.53	0.00282
1707.17	0.0034864
1716.82	0.0032816
1726.46	0.002773
1736.11	0.002928
1745.75	0.002996
1755.4	0.002772
1765.04	0.00317513
1774.69	0.0032432
1784.33	0.002831
1793.98	0.0033251
1803.62	0.0033442
1813.27	0.0037682
1822.91	0.0033414
1832.55	0.0035682
1842.2	0.0035575
1851.84	0.0036297
1861.49	0.0036572
1871.13	0.0035104
1880.78	0.002758
1890.42	0.002929
1900.07	0.00312939
1909.71	0.0030242
1919.36	0.00310213
1929	0.00254
1938.65	0.002727
1948.29	0.0030656
1957.94	0.002842
1967.58	0.002767
1977.23	0.002783
1986.87	0.002555
1996.52	0.002704
2006.16	0.002935
2015.81	0.002851
2025.45	0.002569
2035.1	0.002915
2044.74	0.0030648
2054.38	0.002669
2064.03	0.002934
2073.67	0.002459
2083.32	0.002587
2092.96	0.002639
2102.61	0.002855
2112.25	0.002778
2121.9	0.0030334
2131.54	0.002572
2141.19	0.00317535
2150.83	0.00293
2160.48	0.002711
2170.12	0.00272
2179.77	0.00273
2189.41	0.002964
2199.06	0.002973
2208.7	0.002901
2218.35	0.0033627
2227.99	0.002753
2237.64	0.002867
2247.28	0.002693
2256.92	0.002972
2266.57	0.002762
2276.21	0.002836
2285.86	0.002989
2295.5	0.002531
2305.15	0.002924
2314.79	0.002784
2324.44	0.002817
2334.08	0.002878
2343.73	0.002723
2353.37	0.002629
2363.02	0.002799
2372.66	0.002804
2382.31	0.002926
2391.95	0.002812
2401.6	0.002529
2411.24	0.002584
2420.89	0.002843
2430.53	0.002591
2440.18	0.002716
2449.82	0.002578
2459.47	0.002717
2469.11	0.002482
2478.75	0.002939
2488.4	0.002701
2498.04	0.002827
2507.69	0.002495
2517.33	0.002689
2526.98	0.0030724
2536.62	0.00202
2546.27	0.002557
2555.91	0.002475
2565.56	0.00246
2575.2	0.002587
2584.85	0.003038
2594.49	0.002791
2604.14	0.002471
2613.78	0.002561
2623.43	0.002418
2633.07	0.0033184
2642.72	0.002797
2652.36	0.002654
2662.01	0.002953
2671.65	0.002922
2681.29	0.002711
2690.94	0.002826
2700.58	0.002775
2710.23	0.002669
2719.87	0.002715
2729.52	0.002666
2739.16	0.002864
2748.81	0.002137
2758.45	0.002271
2768.1	0.002452
2777.74	0.002257
2787.39	0.002703
2797.03	0.002648
2806.68	0.002325
2816.32	0.002338
2825.97	0.002411
2835.61	0.002989
2845.26	0.003129
2854.9	0.002782
2864.55	0.002603
2874.19	0.002914
2883.84	0.002622
2893.48	0.002688
2903.12	0.002704
2912.77	0.002945
2922.41	0.0030484
2932.06	0.0034311
2941.7	0.002445
2951.35	0.002799
2960.99	0.0030182
2970.64	0.002536
2980.28	0.002717
2989.93	0.0034251
2999.57	0.003629
3009.22	0.0035269
3018.86	0.0034446
3028.51	0.0039095
3038.15	0.0030495
3047.8	0.0032517
3057.44	0.0036859
3067.09	0.0039501
3076.73	0.0040792
3086.38	0.0040481
3096.02	0.003864
3105.67	0.002846
3115.31	0.00412
3124.95	0.002999
3134.6	0.0032809
3144.24	0.002972
3153.89	0.002689
3163.53	0.002991
3173.18	0.0029
3182.82	0.002236
3192.47	0.002854
3202.11	0.0036626
3211.76	0.002494
3221.4	0.00314851
3231.05	0.002356
3240.69	0.0033887
3250.34	0.002888
3259.98	0.002271
3269.63	0.00265
3279.27	0.00314307
3288.92	0.002444
3298.56	0.002891
3308.21	0.0031273
3317.85	0.002703
3327.49	0.002405
3337.14	0.00316045
3346.78	0.00309484
3356.43	0.0031954
3366.07	0.002822
3375.72	0.0038868
3385.36	0.002737
3395.01	0.0035146
3404.65	0.002971
3414.3	0.002874
3423.94	0.002555
3433.59	0.0030082
3443.23	0.002828
3452.88	0.002836
3462.52	0.002691
3472.17	0.002585
3481.81	0.00204
3491.46	0.0030323
3501.1	0.0030597
3510.75	0.002814
3520.39	0.002108
3530.04	0.002194
3539.68	0.002768
3549.32	0.0032595
3558.97	0.002899
3568.61	0.002272
3578.26	0.002784
3587.9	0.00241
3597.55	0.002921
3607.19	0.00311751
3616.84	0.002586
3626.48	0.002641
3636.13	0.002116
3645.77	0.00315402
3655.42	0.0035641
3665.06	0.00194
3674.71	0.002721
3684.35	0.002979
3694	0.00319555
3703.64	0.00279
3713.29	0.0032582
3722.93	0.002529
3732.58	0.002984
3742.22	0.002434
3751.86	0.002278
3761.51	0.0030002
3771.15	0.003318
3780.8	0.002872
3790.44	0.002745
3800.09	0.0034988
3809.73	0.00265
3819.38	0.002667
3829.02	0.002601
3838.67	0.00313203
3848.31	0.00232
3857.96	0.002888
3867.6	0.0017
3877.25	0.002618
3886.89	0.002719
3896.54	0.002493
3906.18	0.0030483
3915.83	0.00192
3925.47	0.002779
3935.12	0.002649
3944.76	0.00257
3954.41	0.002605
3964.05	0.00253
3973.69	0.002892
3983.34	0.0030855
3992.98	0.003702
