Infrared Spectrum: 3-PENTANONE
Formula: C5 H10 O
CAS: 96-22-0
State: VAPOR (18 MICROLITER AT 180 C)
Boiling point: 101 C
Class: COBLENTZ
Instrument: PERKIN-ELMER 180
Sampling: TRANSMISSION
Path length: 5 CM KBr CELL, CELL VOLUME: 80 CM^3
Resolution: 2-3 CM^-^1
Origin: PERKIN-ELMER CORP. (M. ZELLER)
1/CM	TRANSMITTANCE
402.617	0.426
411.775	0.5109
420.933	0.57
430.09	0.643
439.248	0.6979
448.406	0.736
457.564	0.77
466.722	0.812
475.879	0.836
485.037	0.859
494.195	0.865
503.353	0.847
512.511	0.852
521.668	0.856
530.826	0.866
539.984	0.877
549.142	0.892
558.3	0.906
567.457	0.911
576.615	0.913
585.773	0.911
594.931	0.915
604.089	0.916
613.246	0.92
622.404	0.922
631.562	0.929
640.72	0.939
649.878	0.949
659.035	0.95
668.193	0.938
677.351	0.95
686.509	0.947
695.667	0.946
704.824	0.945
713.982	0.942
723.14	0.937
732.298	0.934
741.456	0.929
750.613	0.928
759.771	0.924
768.929	0.915
778.087	0.906
787.245	0.891
796.402	0.872
805.56	0.852
814.718	0.856
823.876	0.869
833.034	0.891
842.191	0.909
851.349	0.921
860.507	0.932
869.665	0.936
878.823	0.933
887.98	0.929
897.138	0.922
906.296	0.902
915.454	0.853
924.612	0.7511
933.769	0.6311
942.927	0.574
952.085	0.579
961.243	0.6629
970.401	0.755
979.559	0.84
988.716	0.855
997.874	0.839
1007.03	0.784
1016.19	0.75
1025.35	0.749
1034.51	0.77
1043.66	0.802
1052.82	0.822
1061.98	0.826
1071.14	0.804
1080.29	0.7541
1089.45	0.699
1098.61	0.633
1107.77	0.549
1116.93	0.505
1126.08	0.507
1135.24	0.565
1144.4	0.622
1153.56	0.593
1162.71	0.579
1171.87	0.586
1181.03	0.638
1190.19	0.723
1199.35	0.8009
1208.5	0.845
1217.66	0.855
1226.82	0.852
1235.98	0.849
1245.13	0.843
1254.29	0.845
1263.45	0.845
1272.61	0.856
1281.77	0.86
1290.92	0.856
1300.08	0.838
1309.24	0.801
1318.4	0.75
1327.55	0.68
1336.71	0.575
1345.87	0.524
1355.03	0.52
1364.19	0.565
1373.34	0.622
1382.5	0.642
1391.66	0.634
1400.82	0.669
1409.98	0.66
1419.13	0.644
1428.29	0.626
1437.45	0.621
1446.61	0.595
1455.76	0.527
1464.92	0.573
1474.08	0.6099
1483.24	0.7209
1492.4	0.804
1501.55	0.843
1510.71	0.86
1519.87	0.872
1529.03	0.892
1538.18	0.889
1547.34	0.909
1556.5	0.9
1565.66	0.915
1574.82	0.912
1583.97	0.919
1593.13	0.913
1602.29	0.911
1611.45	0.912
1620.6	0.904
1629.76	0.904
1638.92	0.902
1648.08	0.899
1657.24	0.89
1666.39	0.875
1675.55	0.84
1684.71	0.768
1693.87	0.6541
1703.02	0.4601
1712.18	0.253
1721.34	0.135
1730.5	0.112
1739.66	0.127
1748.81	0.2289
1757.97	0.4639
1767.13	0.693
1776.29	0.813
1785.45	0.86
1794.6	0.885
1803.76	0.902
1812.92	0.912
1822.08	0.919
1831.23	0.922
1840.39	0.925
1849.55	0.928
1858.71	0.93
1867.87	0.929
1877.02	0.93
1886.18	0.928
1895.34	0.929
1904.5	0.93
1913.65	0.926
1922.81	0.925
1931.97	0.926
1941.13	0.921
1950.29	0.925
1959.44	0.925
1968.6	0.926
1977.76	0.929
1986.92	0.926
1996.07	0.926
2005.23	0.919
2014.39	0.917
2023.55	0.9159
2032.71	0.915
2041.86	0.916
2051.02	0.916
2060.18	0.917
2069.34	0.917
2078.49	0.916
2087.65	0.9134
2096.81	0.9139
2105.97	0.916
2115.13	0.915
2124.28	0.915
2133.44	0.915
2142.6	0.917
2151.76	0.916
2160.91	0.916
2170.07	0.9139
2179.23	0.912
2188.39	0.9126
2197.55	0.915
2206.7	0.9123
2215.86	0.912
2225.02	0.913
2234.18	0.913
2243.34	0.912
2252.49	0.912
2261.65	0.9093
2270.81	0.908
2279.97	0.908
2289.12	0.9051
2298.28	0.9
2307.44	0.892
2316.6	0.89
2325.76	0.887
2334.91	0.8891
2344.07	0.894
2353.23	0.8847
2362.39	0.8884
2371.54	0.8949
2380.7	0.899
2389.86	0.9023
2399.02	0.9038
2408.18	0.904
2417.33	0.904
2426.49	0.904
2435.65	0.903
2444.81	0.9025
2453.96	0.902
2463.12	0.902
2472.28	0.9021
2481.44	0.903
2490.6	0.9031
2499.75	0.904
2508.91	0.904
2518.07	0.904
2527.23	0.906
2536.38	0.906
2545.54	0.906
2554.7	0.904
2563.86	0.9036
2573.02	0.9021
2582.17	0.9008
2591.33	0.9
2600.49	0.9
2609.65	0.899
2618.8	0.898
2627.96	0.898
2637.12	0.899
2646.28	0.8949
2655.44	0.892
2664.59	0.8908
2673.75	0.889
2682.91	0.887
2692.07	0.8834
2701.23	0.882
2710.38	0.8812
2719.54	0.8769
2728.7	0.8691
2737.86	0.8616
2747.01	0.859
2756.17	0.857
2765.33	0.86
2774.49	0.8543
2783.65	0.8467
2792.8	0.8335
2801.96	0.8181
2811.12	0.7979
2820.28	0.7767
2829.43	0.7535
2838.59	0.7305
2847.75	0.6934
2856.91	0.6376
2866.07	0.5498
2875.22	0.4653
2884.38	0.3758
2893.54	0.3163
2902.7	0.2911
2911.85	0.2769
2921.01	0.2698
2930.17	0.2303
2939.33	0.2097
2948.49	0.1973
2957.64	0.1895
2966.8	0.1633
2975.96	0.1524
2985.12	0.1862
2994.27	0.2975
3003.43	0.497
3012.59	0.6232
3021.75	0.7008
3030.91	0.7487
3040.06	0.7784
3049.22	0.7969
3058.38	0.81
3067.54	0.818
3076.7	0.8222
3085.85	0.8292
3095.01	0.83
3104.17	0.834
3113.33	0.8382
3122.48	0.84
3131.64	0.842
3140.8	0.8404
3149.96	0.8406
3159.12	0.842
3168.27	0.8451
3177.43	0.848
3186.59	0.8514
3195.75	0.8589
3204.9	0.8615
3214.06	0.866
3223.22	0.869
3232.38	0.87
3241.54	0.87
3250.69	0.8721
3259.85	0.8747
3269.01	0.8738
3278.17	0.8747
3287.32	0.877
3296.48	0.878
3305.64	0.8747
3314.8	0.873
3323.96	0.8758
3333.11	0.878
3342.27	0.873
3351.43	0.875
3360.59	0.874
3369.74	0.873
3378.9	0.87
3388.06	0.868
3397.22	0.865
3406.38	0.8595
3415.53	0.8513
3424.69	0.8428
3433.85	0.8368
3443.01	0.8376
3452.16	0.8478
3461.32	0.8557
3470.48	0.8659
3479.64	0.87
3488.8	0.873
3497.95	0.87
3507.11	0.873
3516.27	0.8704
3525.43	0.872
3534.59	0.8694
3543.74	0.868
3552.9	0.8665
3562.06	0.8617
3571.22	0.869
3580.37	0.8615
3589.53	0.8675
3598.69	0.8657
3607.85	0.8602
3617.01	0.8575
3626.16	0.8529
3635.32	0.8543
3644.48	0.8431
3653.64	0.8475
3662.79	0.844
3671.95	0.8447
3681.11	0.8571
3690.27	0.86
3699.43	0.862
3708.58	0.8614
3717.74	0.8598
3726.9	0.8563
3736.06	0.8518
3745.21	0.8558
3754.37	0.861
3763.53	0.8618
3772.69	0.864
3781.85	0.864
3791	0.864
3800.16	0.8621
3809.32	0.8615
3818.48	0.86
3827.63	0.859
3836.79	0.8557
3845.95	0.8412
3855.11	0.8511
3864.27	0.855
3873.42	0.853
3882.58	0.8513
3891.74	0.8477
3900.9	0.8478
3910.06	0.849
3919.21	0.852
3928.37	0.8524
3937.53	0.853
3946.69	0.853
3955.84	0.853
3965	0.852
3974.16	0.851
3983.32	0.8499
3992.48	0.848
