Infrared Spectrum: 3-Pentanone
Formula: C 5 H 10 O
CAS: 96-22-0
State: gas
Instrument: HP-GC/MS/IRD
Origin: NIST Mass Spectrometry Data Center
1/CM	ABSORBANCE
550	0.0004046
562	0.000168
574	0.000252
586	0.0001694
598	0.0002842
610	0.00021
622	0.0002814
634	0.0001008
646	6.86e-05
658	0.000329
670	0.0001218
682	0.0001736
694	0.0001302
706	0.0001904
718	0.000224
730	0.0002982
742	0.0002646
754	0.000189
766	0.0002716
778	0.0003346
790	0.0004802
802	0.0006426
814	0.000679
826	0.0005558
838	0.0004536
850	0.000392
862	0.0004116
874	0.0004214
886	0.000308
898	0.0004228
910	0.0007966
922	0.0018844
934	0.0030506
946	0.0033712
958	0.002331
970	0.0011438
982	0.0006958
994	0.0007924
1006	0.0011452
1018	0.0014084
1030	0.0012586
1042	0.0008344
1054	0.0008078
1066	0.000952
1078	0.0014252
1090	0.0021266
1102	0.003185
1114	0.0037926
1126	0.0038486
1138	0.003101
1150	0.0031808
1162	0.0034552
1174	0.0031192
1186	0.0021224
1198	0.0013552
1210	0.0009324
1222	0.0007966
1234	0.0007994
1246	0.0008736
1258	0.0008848
1270	0.0008218
1282	0.0007896
1294	0.0008666
1306	0.001155
1318	0.0017822
1330	0.0025956
1342	0.0036218
1354	0.0037408
1366	0.003122
1378	0.0024038
1390	0.0023632
1402	0.0021952
1414	0.0024136
1426	0.0026558
1438	0.0028182
1450	0.0031248
1462	0.003276
1474	0.0027006
1486	0.001687
1498	0.0009954
1510	0.0007
1522	0.0005614
1534	0.0004494
1546	0.000364
1558	0.0002702
1570	0.0003234
1582	0.000315
1594	0.0003486
1606	0.000371
1618	0.0004354
1630	0.00042
1642	0.000469
1654	0.0004872
1666	0.0007882
1678	0.0013076
1690	0.002653
1702	0.0056952
1714	0.0106274
1726	0.013853
1738	0.0132384
1750	0.008379
1762	0.003437
1774	0.0014098
1786	0.000728
1798	0.0004606
1810	0.000371
1822	0.0002842
1834	0.0002086
1846	0.0002282
1858	0.0002226
1870	0.0001792
1882	0.0001722
1894	0.0001456
1906	0.000203
1918	0.0001876
1930	0.0002128
1942	0.0001764
1954	0.00014
1966	0.0002198
1978	0.0001694
1990	0.0002044
2002	0.000182
2014	0.0001708
2026	0.0001358
2038	0.0001652
2050	0.0001456
2062	0.0001484
2074	0.000112
2086	9.66e-05
2098	0.0001526
2110	0.000133
2122	0.0001708
2134	0.0001232
2146	0.0001372
2158	0.000112
2170	0.0001358
2182	0.0001078
2194	0.0001134
2206	9.94e-05
2218	7.84e-05
2230	0.0001442
2242	8.82e-05
2254	7.84e-05
2266	0.0001456
2278	7.7e-05
2290	7.56e-05
2302	0.0001008
2314	7e-05
2326	0.000161
2338	0.000112
2350	8.12e-05
2362	4.34e-05
2374	0.000133
2386	0.0001554
2398	0.0001316
2410	0.0001246
2422	9.52e-05
2434	0.0001372
2446	0.0001078
2458	0.0001148
2470	0.0001386
2482	8.96e-05
2494	0.000112
2506	0.0001218
2518	0.0001078
2530	9.38e-05
2542	7.98e-05
2554	9.1e-05
2566	5.88e-05
2578	0.0001442
2590	0.0001036
2602	0.0001274
2614	0.000119
2626	8.96e-05
2638	0.0001344
2650	0.0001666
2662	0.0002128
2674	0.000112
2686	0.0002086
2698	0.0001638
2710	0.0001932
2722	0.0002394
2734	0.0002758
2746	0.0003066
2758	0.0003598
2770	0.0003164
2782	0.0003752
2794	0.000511
2806	0.0006552
2818	0.0008344
2830	0.000994
2842	0.0011438
2854	0.0013916
2866	0.00203
2878	0.0032928
2890	0.004858
2902	0.006265
2914	0.006657
2926	0.0068418
2938	0.0077756
2950	0.0082544
2962	0.0088886
2974	0.00959
2986	0.0101416
2998	0.007945
3010	0.004424
3022	0.0025438
3034	0.0015078
3046	0.0010836
3058	0.0008554
3070	0.0007364
3082	0.0005894
3094	0.0005894
3106	0.0004676
3118	0.0004718
3130	0.0004634
3142	0.0003794
3154	0.0003878
3166	0.0002898
3178	0.0003402
3190	0.0003276
3202	0.0002226
3214	0.000217
3226	0.0001512
3238	0.0001288
3250	0.0001162
3262	0.0001372
3274	0.0002184
3286	5.6e-05
3298	0.0001526
3310	7.98e-05
3322	0.0001092
3334	0.000217
3346	0.0001918
3358	9.94e-05
3370	0.0001092
3382	0.0001288
3394	0.0002296
3406	0.0002716
3418	0.0002982
3430	0.0003962
3442	0.0004004
3454	0.000357
3466	0.0001988
3478	0.0001708
3490	0.0001218
3502	0.000161
3514	9.38e-05
3526	0.0001302
3538	0.0001596
3550	0.0001624
3562	3.36e-05
3574	9.1e-05
3586	0.0001372
3598	0.000112
3610	0.0001484
3622	0.0001386
3634	6.16e-05
3646	8.54e-05
3658	0.0001498
3670	0.0001078
3682	7.56e-05
3694	5.88e-05
3706	9.24e-05
3718	0.0001512
3730	0.00021
3742	6.02e-05
3754	3.78e-05
3766	0.0001106
3778	9.38e-05
3790	9.8e-05
3802	3.08e-05
3814	0.0001134
3826	0.0001302
3838	0.0001036
