Infrared Spectrum: Cyclobutanecarbonitrile
Formula: C 5 H 7 N
CAS: 4426-11-3
State: gas
Origin: EPA-IR VAPOR PHASE LIBRARY
1/CM	ABSORBANCE
549.8	0.0010653
559.445	0.0014397
569.09	0.0016957
578.734	0.0007756
588.379	0.0017693
598.024	0.001239
607.669	0.000543
617.313	0.000714
626.958	0.0012412
636.603	0.0010257
646.248	0.0010907
655.893	0.0014804
665.537	0.0017078
675.182	0.002207
684.827	0.002777
694.472	0.003137
704.116	0.002827
713.761	0.003087
723.406	0.003817
733.051	0.003017
742.695	0.002577
752.34	0.002207
761.985	0.001867
771.63	0.002227
781.275	0.0013192
790.919	0.0015757
800.564	0.0011279
810.209	0.000859603
819.854	0.0007869
829.498	0.0015688
839.143	0.0018086
848.788	0.0015694
858.433	0.002127
868.078	0.002267
877.722	0.002627
887.367	0.002987
897.012	0.003467
906.657	0.003017
916.301	0.004017
925.946	0.004717
935.591	0.003617
945.236	0.003017
954.88	0.002277
964.525	0.0017891
974.17	0.00094536
983.815	0.000658
993.46	0.0012438
1003.1	0.0011756
1012.75	0.0016854
1022.39	0.002157
1032.04	0.0014805
1041.68	0.0013801
1051.33	0.000628
1060.97	0.0010506
1070.62	0.000876
1080.26	0.0014581
1089.91	0.002427
1099.55	0.004167
1109.2	0.001997
1118.84	0.003247
1128.49	0.0010311
1138.13	0.0016719
1147.78	0.0008439
1157.42	0.0013418
1167.07	0.0011684
1176.71	0.0011514
1186.36	0.0014212
1196	0.002927
1205.64	0.002097
1215.29	0.004387
1224.93	0.003947
1234.58	0.004717
1244.22	0.005857
1253.87	0.005247
1263.51	0.004727
1273.16	0.003297
1282.8	0.002817
1292.45	0.002297
1302.09	0.002647
1311.74	0.003927
1321.38	0.005487
1331.03	0.005367
1340.67	0.004977
1350.32	0.002947
1359.96	0.002007
1369.61	0.001887
1379.25	0.001977
1388.9	0.002127
1398.54	0.002187
1408.18	0.002897
1417.83	0.003657
1427.47	0.005527
1437.12	0.007997
1446.76	0.008497
1456.41	0.008777
1466.05	0.006817
1475.7	0.004597
1485.34	0.003477
1494.99	0.002627
1504.63	0.002117
1514.28	0.0018396
1523.92	0.001957
1533.57	0.001897
1543.21	0.0012922
1552.86	0.0015576
1562.5	0.0012241
1572.15	0.001146
1581.79	0.0013854
1591.44	0.0011346
1601.08	0.0011077
1610.73	0.0011828
1620.37	0.0012273
1630.01	0.0011459
1639.66	0.0010403
1649.3	0.0013362
1658.95	0.0010382
1668.59	0.0012208
1678.24	0.0012563
1687.88	0.001389
1697.53	0.0015081
1707.17	0.0013594
1716.82	0.0011353
1726.46	0.0012913
1736.11	0.0014461
1745.75	0.001418
1755.4	0.0012679
1765.04	0.0014019
1774.69	0.0013102
1784.33	0.0013096
1793.98	0.0012383
1803.62	0.0012464
1813.27	0.0013941
1822.91	0.0012633
1832.55	0.0011837
1842.2	0.0015206
1851.84	0.0012742
1861.49	0.001363
1871.13	0.0013123
1880.78	0.00132
1890.42	0.0014361
1900.07	0.0011819
1909.71	0.0010436
1919.36	0.0012141
1929	0.0012861
1938.65	0.0013694
1948.29	0.0015891
1957.94	0.0015802
1967.58	0.0014748
1977.23	0.0014198
1986.87	0.001619
1996.52	0.0014467
2006.16	0.0014525
2015.81	0.0015457
2025.45	0.0013347
2035.1	0.001321
2044.74	0.0017005
2054.38	0.0015898
2064.03	0.0014328
2073.67	0.0015364
2083.32	0.0016057
2092.96	0.0017569
2102.61	0.0017551
2112.25	0.0016729
2121.9	0.001867
2131.54	0.002347
2141.19	0.002597
2150.83	0.002777
2160.48	0.002777
2170.12	0.002757
2179.77	0.002407
2189.41	0.002217
2199.06	0.002267
2208.7	0.002757
2218.35	0.004097
2227.99	0.006837
2237.64	0.008427
2247.28	0.008647
2256.92	0.006557
2266.57	0.003077
2276.21	0.002137
2285.86	0.001937
2295.5	0.001662
2305.15	0.001531
2314.79	0.0014899
2324.44	0.0016657
2334.08	0.0017617
2343.73	0.0018365
2353.37	0.001877
2363.02	0.001927
2372.66	0.001937
2382.31	0.001977
2391.95	0.001589
2401.6	0.0018312
2411.24	0.001792
2420.89	0.0017397
2430.53	0.0017239
2440.18	0.00176
2449.82	0.0015898
2459.47	0.0012244
2469.11	0.0013992
2478.75	0.0015545
2488.4	0.0016145
2498.04	0.0013443
2507.69	0.0011197
2517.33	0.0013208
2526.98	0.0010214
2536.62	0.0013546
2546.27	0.0014336
2555.91	0.0013299
2565.56	0.0012193
2575.2	0.0012789
2584.85	0.0011992
2594.49	0.0011376
2604.14	0.0011675
2613.78	0.0012152
2623.43	0.0011726
2633.07	0.0012202
2642.72	0.0012534
2652.36	0.0014616
2662.01	0.0012384
2671.65	0.001732
2681.29	0.0015835
2690.94	0.0016232
2700.58	0.0017481
2710.23	0.001897
2719.87	0.0016506
2729.52	0.0015406
2739.16	0.0015206
2748.81	0.0015111
2758.45	0.0017617
2768.1	0.0017161
2777.74	0.0014395
2787.39	0.001867
2797.03	0.0017769
2806.68	0.001897
2816.32	0.002187
2825.97	0.002767
2835.61	0.003297
2845.26	0.004657
2854.9	0.007727
2864.55	0.012587
2874.19	0.019347
2883.84	0.022247
2893.48	0.023067
2903.12	0.021467
2912.77	0.019787
2922.41	0.024037
2932.06	0.032707
2941.7	0.047667
2951.35	0.067047
2960.99	0.078877
2970.64	0.092527
2980.28	0.097157
2989.93	0.095867
2999.57	0.095867
3009.22	0.069387
3018.86	0.049467
3028.51	0.027157
3038.15	0.014047
3047.8	0.008007
3057.44	0.006457
3067.09	0.005457
3076.73	0.004247
3086.38	0.004177
3096.02	0.003077
3105.67	0.002547
3115.31	0.002377
3124.95	0.002277
3134.6	0.0017144
3144.24	0.0016664
3153.89	0.0017695
3163.53	0.0017651
3173.18	0.002127
3182.82	0.0017129
3192.47	0.002037
3202.11	0.0017722
3211.76	0.0014534
3221.4	0.001537
3231.05	0.0016302
3240.69	0.001977
3250.34	0.001937
3259.98	0.0016329
3269.63	0.0015537
3279.27	0.0016121
3288.92	0.0016707
3298.56	0.001917
3308.21	0.0013641
3317.85	0.0013812
3327.49	0.0013991
3337.14	0.0012769
3346.78	0.0010319
3356.43	0.0010098
3366.07	0.0011579
3375.72	0.0009047
3385.36	0.00089591
3395.01	0.00086457
3404.65	0.0011767
3414.3	0.00088925
3423.94	0.00087623
3433.59	0.0013687
3443.23	0.0008451
3452.88	0.0013492
3462.52	0.00089091
3472.17	0.0010125
3481.81	0.0013347
3491.46	0.0014056
3501.1	0.0014962
3510.75	0.00094038
3520.39	0.0012136
3530.04	0.0013307
3539.68	0.0010005
3549.32	0.0014269
3558.97	0.0013464
3568.61	0.0015483
3578.26	0.0016277
3587.9	0.001361
3597.55	0.0013116
3607.19	0.0013849
3616.84	0.0014077
3626.48	0.0012555
3636.13	0.0013417
3645.77	0.0016713
3655.42	0.0010358
3665.06	0.0016084
3674.71	0.001216
3684.35	0.001135
3694	0.0009986
3703.64	0.0013411
3713.29	0.0016215
3722.93	0.0017736
3732.58	0.0016822
3742.22	0.0015088
3751.86	0.0013135
3761.51	0.0012524
3771.15	0.0014037
3780.8	0.0013626
3790.44	0.0010949
3800.09	0.0011541
3809.73	0.0015637
3819.38	0.0014069
3829.02	0.0011037
3838.67	0.0016442
3848.31	0.0011397
3857.96	0.0016163
3867.6	0.0015259
3877.25	0.0017706
3886.89	0.0013779
3896.54	0.001238
3906.18	0.0012601
3915.83	0.0017459
3925.47	0.001247
3935.12	0.0012671
3944.76	0.0017726
3954.41	0.00124
3964.05	0.0012214
3973.69	0.0013352
3983.34	0.001078
3992.98	0.0012046
