Infrared Spectrum: 1,3-Dichloroacetone
Formula: C 3 H 4 Cl 2 O
CAS: 534-07-6
State: gas
Origin: EPA-IR VAPOR PHASE LIBRARY
1/CM	ABSORBANCE
501.5	0.002947
513.074	0.002747
524.648	0.002967
536.222	0.003687
547.796	0.004467
559.37	0.004257
570.944	0.003717
582.518	0.003187
594.092	0.002907
605.666	0.002927
617.24	0.002987
628.814	0.002707
640.388	0.002027
651.962	0.001607
663.536	0.001647
675.11	0.002077
686.684	0.003217
698.258	0.003877
709.832	0.004157
721.406	0.005257
732.98	0.006257
744.554	0.006167
756.128	0.005957
767.702	0.007477
779.276	0.009897
790.85	0.009167
802.423	0.007177
813.997	0.006397
825.571	0.005737
837.145	0.004427
848.719	0.002637
860.293	0.001657
871.867	0.0011247
883.441	0.0008109
895.015	0.0006682
906.589	0.0005481
918.163	0.0005388
929.737	0.0005253
941.311	0.0006983
952.885	0.000787
964.459	0.0006354
976.033	0.0006924
987.607	0.000684
999.181	0.0006515
1010.76	0.0006674
1022.33	0.0008246
1033.9	0.0012973
1045.48	0.001897
1057.05	0.002637
1068.63	0.004157
1080.2	0.006117
1091.77	0.007467
1103.35	0.007327
1114.92	0.006457
1126.49	0.005387
1138.07	0.004737
1149.64	0.004537
1161.22	0.004657
1172.79	0.004657
1184.36	0.004537
1195.94	0.005007
1207.51	0.006687
1219.09	0.010337
1230.66	0.011797
1242.23	0.009467
1253.81	0.008307
1265.38	0.008507
1276.96	0.007697
1288.53	0.006817
1300.1	0.005447
1311.68	0.003737
1323.25	0.002167
1334.83	0.001407
1346.4	0.0010666
1357.97	0.0009932
1369.55	0.0011386
1381.12	0.001707
1392.7	0.003167
1404.27	0.005977
1415.84	0.010357
1427.42	0.011247
1438.99	0.006597
1450.57	0.002817
1462.14	0.001607
1473.71	0.0011488
1485.29	0.0008706
1496.86	0.000708
1508.44	0.0005808
1520.01	0.0005821
1531.58	0.0005804
1543.16	0.0005723
1554.73	0.0005178
1566.31	0.0005295
1577.88	0.0005226
1589.45	0.0004835
1601.03	0.0005032
1612.6	0.000532
1624.18	0.0005729
1635.75	0.0006762
1647.32	0.0007876
1658.9	0.0010194
1670.47	0.0013496
1682.05	0.002007
1693.62	0.003207
1705.19	0.005907
1716.77	0.012707
1728.34	0.026877
1739.92	0.038177
1751.49	0.037417
1763.06	0.023287
1774.64	0.011567
1786.21	0.005357
1797.79	0.002937
1809.36	0.001807
1820.93	0.0012183
1832.51	0.0008783
1844.08	0.0007731
1855.66	0.0006375
1867.23	0.0005536
1878.8	0.0004845
1890.38	0.0004724
1901.95	0.0004807
1913.53	0.00043367
1925.1	0.00043467
1936.67	0.00038942
1948.25	0.0003395
1959.82	0.0003055
1971.4	0.000313
1982.97	0.000319
1994.54	0.0002845
2006.12	0.000256
2017.69	0.000225
2029.27	0.00026
2040.84	0.0002735
2052.41	0.0002811
2063.99	0.0002953
2075.56	0.0002877
2087.14	0.0002903
2098.71	0.0003051
2110.28	0.0002927
2121.86	0.0003139
2133.43	0.000288
2145.01	0.0002966
2156.58	0.0003191
2168.15	0.0002926
2179.73	0.0002903
2191.3	0.0002915
2202.88	0.0003228
2214.45	0.0003248
2226.02	0.0003271
2237.6	0.0003064
2249.17	0.000305
2260.74	0.0002799
2272.32	0.0002762
2283.89	0.0003002
2295.47	0.0002969
2307.04	0.0002699
2318.61	0.0003356
2330.19	0.0003569
2341.76	0.00036026
2353.34	0.0003351
2364.91	0.000367654
2376.48	0.0003023
2388.06	0.000259
2399.63	0.000182
2411.21	0.000217
2422.78	0.000198
2434.35	0.000189
2445.93	0.000207
2457.5	0.000229
2469.08	0.000242
2480.65	0.000258
2492.22	0.0002916
2503.8	0.000266
2515.37	0.000261
2526.95	0.0002885
2538.52	0.000244
2550.09	0.000258
2561.67	0.000193
2573.24	0.000194
2584.82	0.000216
2596.39	0.00019
2607.96	0.000184
2619.54	0.000178
2631.11	0.000231
2642.69	0.000235
2654.26	0.0002781
2665.83	0.0003205
2677.41	0.000371906
2688.98	0.000321
2700.56	0.000294
2712.13	0.00023
2723.7	0.000204
2735.28	0.000194
2746.85	0.000213
2758.43	0.000221
2770	0.000231
2781.57	0.00023
2793.15	0.0003525
2804.72	0.000376362
2816.3	0.00045687
2827.87	0.00051
2839.44	0.0005208
2851.02	0.00046512
2862.59	0.0004861
2874.17	0.0004656
2885.74	0.00057
2897.31	0.0006179
2908.89	0.0009409
2920.46	0.001467
2932.04	0.002417
2943.61	0.003967
2955.18	0.004657
2966.76	0.004357
2978.33	0.003367
2989.91	0.001837
3001.48	0.0011291
3013.05	0.0009834
3024.63	0.0008333
3036.2	0.0007392
3047.78	0.0005196
3059.35	0.00041094
3070.92	0.0002867
3082.5	0.000262
3094.07	0.000253
3105.65	0.000187
3117.22	0.000264
3128.79	0.000144
3140.37	0.000212
3151.94	0.000188
3163.52	0.000155
3175.09	0.000224
3186.66	0.000193
3198.24	0.00013
3209.81	0.000164
3221.39	0.000173
3232.96	8e-05
3244.53	0.000183
3256.11	0.000158
3267.68	0.000156
3279.26	0.000137
3290.83	0.0002
3302.4	9e-05
3313.98	0.000191
3325.55	9.9e-05
3337.13	0.000172
3348.7	0.000141
3360.27	0.000158
3371.85	0.000169
3383.42	0.000275
3395	0.0003299
3406.57	0.0002788
3418.14	0.000216
3429.72	0.00045813
3441.29	0.0007301
3452.86	0.0009793
3464.44	0.0010649
3476.01	0.0009818
3487.59	0.0007658
3499.16	0.0008001
3510.73	0.0006592
3522.31	0.00035718
3533.88	0.0003446
3545.46	0.0003379
3557.03	0.0003183
3568.6	0.0003015
3580.18	0.000184
3591.75	0.000166
3603.33	0.00015
3614.9	0.000188
3626.47	0.000188
3638.05	8.3e-05
3649.62	4.9e-05
3661.2	0.000165
3672.77	0.000203
3684.34	0.000179
3695.92	0.0002854
3707.49	0.000217
3719.07	0.000264
3730.64	0.000261
3742.21	0.0002998
3753.79	0.0003455
3765.36	0.000223
3776.94	0.0003401
3788.51	0.0003287
3800.08	0.0002937
3811.66	0.000224
3823.23	0.000155
3834.81	0.000242
3846.38	0.000194
3857.95	9.5e-05
3869.53	0.00021
3881.1	0.000198
3892.68	0.000203
3904.25	0.000197
3915.82	0.000226
3927.4	0.000266
3938.97	0.000135
3950.55	0.00024
3962.12	0.000147
3973.69	0.000176
3985.27	0.000177
3996.84	0.0002734
