Infrared Spectrum: 2-Propanone, 1,3-dichloro-
Formula: C3 H4 Cl2 O
CAS: 534-07-6
State: SOLUTION (10% CCl4 FOR 2.6-7.5, 10% CS2 FOR 7.5-22 MICRON)
Class: COBLENTZ III
Instrument: DOW KBr FOREPRISM-GRATING
Instrument parameters: BLAZED AT 3.5, 12.0, 20.0 MICRON AND CHANGED AT 5.0, 7.5, 14.9 MICRON
Sampling: TRANSMISSION
Path length: 0.011 CM, 0.01 CM
Resolution: 2
Origin: DOW CHEMICAL COMPANY
1/CM	TRANSMITTANCE
3806	0.9342
3797	0.9327
3788	0.9335
3779	0.932
3770	0.9327
3761	0.9322
3752	0.9317
3743	0.9309
3734	0.9319
3725	0.9328
3716	0.9337
3707	0.9365
3698	0.9375
3689	0.9366
3680	0.9358
3671	0.9362
3662	0.9367
3653	0.937
3644	0.9375
3635	0.9378
3626	0.9394
3617	0.9393
3608	0.938
3599	0.9377
3590	0.9389
3581	0.9387
3572	0.9376
3563	0.9363
3554	0.9359
3545	0.9372
3536	0.9383
3527	0.9373
3518	0.9374
3509	0.9367
3500	0.932
3491	0.9202
3482	0.9036
3473	0.8975
3464	0.9033
3455	0.916
3446	0.9178
3437	0.92
3428	0.9283
3419	0.9388
3410	0.9432
3401	0.9462
3392	0.9461
3383	0.9459
3374	0.9456
3365	0.9451
3356	0.9448
3347	0.9443
3338	0.9453
3329	0.9436
3320	0.9433
3311	0.9442
3302	0.9427
3293	0.9421
3284	0.9419
3275	0.9426
3266	0.9422
3257	0.9417
3248	0.9412
3239	0.94
3230	0.9387
3221	0.9374
3212	0.9363
3203	0.9339
3194	0.9344
3185	0.9321
3176	0.9311
3167	0.9302
3158	0.929
3149	0.9282
3140	0.9266
3131	0.925
3122	0.9229
3113	0.9207
3104	0.9198
3095	0.9211
3086	0.9144
3077	0.9112
3068	0.9086
3059	0.9018
3050	0.8954
3041	0.893
3032	0.8787
3023	0.8609
3014	0.8384
3005	0.8265
2996	0.8197
2987	0.8069
2978	0.7989
2969	0.7942
2960	0.749
2951	0.7073
2942	0.6423
2933	0.5751
2924	0.6451
2915	0.7649
2906	0.8702
2897	0.8864
2888	0.893
2879	0.8969
2870	0.8982
2861	0.8991
2852	0.8988
2843	0.9002
2834	0.9008
2825	0.9022
2816	0.9031
2807	0.9054
2798	0.9054
2789	0.9034
2780	0.9036
2771	0.9062
2762	0.9107
2753	0.9117
2744	0.9125
2735	0.913
2726	0.9125
2717	0.9119
2708	0.9115
2699	0.9115
2690	0.9116
2681	0.9117
2672	0.9117
2663	0.9117
2654	0.913
2645	0.9122
2636	0.9116
2627	0.9132
2618	0.9136
2609	0.9142
2600	0.9146
2591	0.9149
2582	0.9152
2573	0.9154
2564	0.9153
2555	0.9151
2546	0.9146
2537	0.9142
2528	0.913
2519	0.9093
2510	0.9083
2501	0.9081
2492	0.9078
2483	0.9082
2474	0.9103
2465	0.911
2456	0.9106
2447	0.9114
2438	0.9114
2429	0.9115
2420	0.9115
2411	0.9115
2402	0.9129
2393	0.913
2384	0.9151
2375	0.9183
2366	0.9176
2357	0.9201
2348	0.9209
2339	0.9177
2330	0.9174
2321	0.9173
2312	0.9147
2303	0.9122
2294	0.912
2285	0.91
2276	0.9078
2267	0.9078
2258	0.9082
2249	0.9067
2240	0.9068
2231	0.9069
2222	0.9081
2213	0.9084
2204	0.9098
2195	0.9101
2186	0.9111
2177	0.913
2168	0.9124
2159	0.913
2150	0.913
2141	0.9129
2132	0.9129
2123	0.9129
2114	0.9143
2105	0.9155
2096	0.9164
2087	0.917
2078	0.9175
2069	0.9177
2060	0.9176
2051	0.9182
2042	0.9177
2033	0.9178
2024	0.9189
2015	0.9182
2006	0.9165
1997	0.9097
1988	0.903
1979	0.8977
1970	0.8952
1961	0.9174
1952	0.9034
1943	0.8981
1934	0.8985
1925	0.8963
1916	0.895
1907	0.8951
1898	0.8957
1889	0.8916
1880	0.8895
1871	0.8881
1862	0.8843
1853	0.8808
1844	0.8768
1835	0.8729
1826	0.8674
1817	0.8603
1808	0.8432
1799	0.7962
1790	0.7657
1781	0.7412
1772	0.6919
1763	0.3903
1754	0.0879
1745	0.0215
1736	0.0713
1727	0.1316
1718	0.5723
1709	0.6841
1700	0.7484
1691	0.7893
1682	0.8255
1673	0.8549
1664	0.8691
1655	0.8826
1646	0.9073
1637	0.9082
1628	0.9025
1619	0.897
1610	0.9048
1601	0.8914
1592	0.8515
1583	0.8337
1574	0.8236
1565	0.7713
1556	0.7385
1547	0.7597
1538	0.7686
1529	0.7844
1520	0.8176
1511	0.8337
1502	0.8392
1493	0.8489
1484	0.8644
1475	0.8771
1466	0.8707
1457	0.8651
1448	0.8547
1439	0.819
1430	0.734
1421	0.5364
1412	0.4952
1403	0.3429
1394	0.2979
1385	0.7009
1376	0.8244
1367	0.8699
1358	0.8766
1349	0.8726
1340	0.8606
1331	0.8525
1322	0.8337
1313	0.7734
1304	0.6405
1295	0.6447
1286	0.6654
1277	0.6314
1268	0.661
1259	0.5303
1250	0.5604
1241	0.7521
1232	0.6826
1223	0.6443
1214	0.7598
1205	0.7759
1196	0.7249
1187	0.735
1178	0.7678
1169	0.7875
1160	0.7514
1151	0.7143
1142	0.6901
1133	0.6951
1124	0.6836
1115	0.6261
1106	0.6122
1097	0.6462
1088	0.6856
1079	0.7239
1070	0.7625
1061	0.7996
1052	0.777
1043	0.7964
1034	0.8746
1025	0.8997
1016	0.9094
1007	0.913
998	0.9142
989	0.9157
980	0.915
971	0.9101
962	0.9004
953	0.8736
944	0.7552
935	0.864
926	0.8949
917	0.9027
908	0.9073
899	0.9094
890	0.9122
881	0.9046
872	0.8793
863	0.8564
854	0.8183
845	0.7659
836	0.7068
827	0.6395
818	0.5816
809	0.5874
800	0.6679
791	0.7021
782	0.6745
773	0.633
764	0.6745
755	0.7336
746	0.712
737	0.5003
728	0.5382
719	0.6525
710	0.7651
701	0.8126
692	0.7725
683	0.8387
674	0.8864
665	0.9053
656	0.913
647	0.8717
638	0.8625
629	0.7411
620	0.8187
611	0.8682
602	0.8758
593	0.8778
584	0.8745
575	0.8568
566	0.8188
557	0.7748
548	0.7302
539	0.71
530	0.7157
521	0.7558
512	0.8064
503	0.8265
494	0.8294
485	0.8211
476	0.8023
467	0.7776
458	0.7642
449	0.7616
