Infrared Spectrum: Ammonia
Formula: H 3 N
CAS: 7664-41-7
State: gas
Origin: Sadtler Research Labs Under US-EPA Contract
1/CM	ABSORBANCE
450	0.0584542
462	0.0472147
474	0.0302227
486	0.0310192
498	0.0377895
510	0.0273023
522	0.0292492
534	0.0298687
546	0.0201337
558	0.025311
570	0.0268155
582	0.021771
594	0.0314175
606	0.0224347
618	0.0296475
630	0.0593835
642	0.0236295
654	0.0267712
666	0.0298687
678	0.0224347
690	0.03717
702	0.0257535
714	0.0277447
726	0.0365505
738	0.0336742
750	0.0397365
762	0.0409312
774	0.0349132
786	0.059118
798	0.0598702
810	0.0467723
822	0.029382
834	0.063366
846	0.0391613
858	0.0511972
870	0.0760215
882	0.0139387
894	0.0532327
906	0.045843
918	0.057702
930	0.366611
942	0.0319485
954	0.0732338
966	0.4425
978	0.0420375
990	0.034161
1002	0.0142927
1014	0.0816855
1026	0.0392055
1038	0.0307095
1050	0.0649147
1062	0.0280103
1074	0.0881902
1086	0.0908895
1098	0.0381435
1110	0.0340725
1122	0.0754905
1134	0.0350017
1146	0.0305325
1158	0.0647377
1170	0.035754
1182	0.0184965
1194	0.047259
1206	0.020178
1218	0.0288067
1230	0.0275677
1242	0.02301
1254	0.0193373
1266	0.0212842
1278	0.0211515
1290	0.0184522
1302	0.020532
1314	0.0215497
1326	0.018762
1338	0.0228772
1350	0.0193373
1362	0.020886
1374	0.0219037
1386	0.0200895
1398	0.0222577
1410	0.0233198
1422	0.0225232
1434	0.0219037
1446	0.0196027
1458	0.029913
1470	0.043896
1482	0.0404002
1494	0.0303555
1506	0.0386745
1518	0.0431438
1530	0.044781
1542	0.0381877
1554	0.0315503
1566	0.0294705
1578	0.037878
1590	0.0273465
1602	0.0288067
1614	0.0496042
1626	0.100094
1638	0.032214
1650	0.0274793
1662	0.0268155
1674	0.0238065
1686	0.020355
1698	0.0302227
1710	0.0257092
1722	0.02655
1734	0.02655
1746	0.0204877
1758	0.023364
1770	0.0234968
1782	0.0234525
1794	0.020886
1806	0.0193373
1818	0.018054
1830	0.0169478
1842	0.0156202
1854	0.0133192
1866	0.0138945
1878	0.0126555
1890	0.0124785
1902	0.0122572
1914	0.0123015
1926	0.0119032
1938	0.011682
1950	0.010974
1962	0.0107085
1974	0.0109298
1986	0.0103102
1998	0.0103988
2010	0.0104873
2022	0.00977925
2034	0.00969075
2046	0.0096465
2058	0.009558
2070	0.009558
2082	0.00924825
2094	0.0091155
2106	0.00924825
2118	0.0087615
2130	0.0087615
2142	0.0087615
2154	0.00827475
2166	0.00836325
2178	0.008142
2190	0.00783225
2202	0.007965
2214	0.00774375
2226	0.007434
2238	0.007611
2250	0.00712425
2262	0.00703575
2274	0.0071685
2286	0.00677025
2298	0.00650475
2310	0.00708
2322	0.00694725
2334	0.00597375
2346	0.006372
2358	0.00685875
2370	0.006903
2382	0.00659325
2394	0.0055755
2406	0.0057525
2418	0.0053985
2430	0.00517725
2442	0.0050445
2454	0.004602
2466	0.0045135
2478	0.00464625
2490	0.00446925
2502	0.004779
2514	0.00402675
2526	0.00411525
2538	0.004071
2550	0.0039825
2562	0.00367275
2574	0.0034515
2586	0.0030975
2598	0.00287625
2610	0.00331875
2622	0.00287625
2634	0.002655
2646	0.0029205
2658	0.0022125
2670	0.00261075
2682	0.0022125
2694	0.0025665
2706	0.00199125
2718	0.00199125
2730	0.0016815
2742	0.00128325
2754	0.00128325
2766	0.00092925
2778	0.0009735
2790	0.00092925
2802	0.00092925
2814	0.00101775
2826	0.00119475
2838	0.00101775
2850	0.00075225
2862	0.000885
2874	0.0013275
2886	0.00084075
2898	0.001239
2910	0.0015045
2922	0.00066375
2934	0.00119475
2946	0.001416
2958	0.00110625
2970	0.0018585
2982	0.00177
2994	0.00101775
3006	0.0015045
3018	0.0009735
3030	0.0009735
3042	0.00137175
3054	0.0009735
3066	0.00084075
3078	0.00177
3090	0.00137175
3102	0.0016815
3114	0.001593
3126	0.002124
3138	0.0030975
3150	0.00154875
3162	0.00177
3174	0.00508875
3186	0.00278775
3198	0.0043365
3210	0.0025665
3222	0.00287625
3234	0.00650475
3246	0.0018585
3258	0.007788
3270	0.002301
3282	0.00349575
3294	0.004071
3306	0.005841
3318	0.005487
3330	0.022479
3342	0.00252225
3354	0.00473475
3366	0.0057525
3378	0.00800925
3390	0.00464625
3402	0.00349575
3414	0.0156202
3426	0.00305325
3438	0.00854025
3450	0.0114607
3462	0.004248
3474	0.0137617
3486	0.00119475
3498	0.003894
3510	0.0089385
3522	0.004071
3534	0.004248
3546	0.004425
3558	0.00349575
3570	0.00402675
3582	0.002301
3594	0.00305325
3606	0.002124
3618	0.00261075
3630	0.00429225
3642	0.0015045
3654	0.002478
3666	0.0013275
3678	0.00163725
3690	0.002301
3702	0.002478
3714	0.00137175
3726	0.0027435
3738	0.0025665
3750	0.0020355
3762	0.000531
3774	0.0020355
3786	0.00269925
3798	0.00084075
3810	0.0016815
3822	0.002124
3834	0.0015045
3846	0.00128325
3858	0.00110625
3870	0.002655
3882	0.0027435
3894	0.0018585
3906	0.0032745
3918	0.00181425
3930	0.002832
3942	0.00128325
3954	0.0020355
3966	0.00287625
