Infrared Spectrum: 3-Methyl-1-pentene
Formula: C 6 H 12
CAS: 760-20-3
State: gas
Instrument: HP-GC/MS/IRD
Origin: NIST Mass Spectrometry Data Center
1/CM	ABSORBANCE
550	0.0003055
562	0.0001457
574	4.7e-05
586	6.11e-05
598	0.0002961
610	0.0002679
622	0.0003243
634	0.0005969
646	0.0010951
658	0.0019317
670	0.0023124
682	0.002068
694	0.0009635
706	0.0005076
718	0.0002867
730	0.0004136
742	0.0005546
754	0.0008366
766	0.0009682
778	0.0008695
790	0.0006345
802	0.0007191
814	0.0006486
826	0.0006439
838	0.0008272
850	0.000846
862	0.001034
874	0.0015651
886	0.0032618
898	0.0077785
910	0.0117876
922	0.011374
934	0.0060583
946	0.0031678
958	0.0028153
970	0.0033746
982	0.0050854
994	0.0071205
1006	0.0066364
1018	0.0040138
1030	0.0022325
1042	0.0013959
1054	0.0010481
1066	0.0009259
1078	0.001128
1090	0.0011515
1102	0.0009964
1114	0.0008225
1126	0.0008131
1138	0.0007097
1150	0.0006392
1162	0.0004935
1174	0.0003901
1186	0.0003008
1198	0.0002444
1210	0.0002585
1222	0.0002961
1234	0.0003572
1246	0.0005828
1258	0.000752
1270	0.0009353
1282	0.0010152
1294	0.0011609
1306	0.0011844
1318	0.001222
1330	0.0012596
1342	0.001316
1354	0.001692
1366	0.0028106
1378	0.0038258
1390	0.0040091
1402	0.0031114
1414	0.0030362
1426	0.0031913
1438	0.0036895
1450	0.0049585
1462	0.0061288
1474	0.0047282
1486	0.0027871
1498	0.0012455
1510	0.0005969
1522	0.0004277
1534	0.000423
1546	0.0004418
1558	0.0004794
1570	0.0007332
1582	0.000799
1594	0.0008037
1606	0.0010481
1618	0.0020304
1630	0.0035814
1642	0.0040608
1654	0.0028435
1666	0.0012925
1678	0.0006157
1690	0.0003619
1702	0.0002021
1714	0.0001316
1726	0.0001316
1738	6.11e-05
1750	8.93e-05
1762	0.0001034
1774	0.0001175
1786	0.0001739
1798	0.0002679
1810	0.0006157
1822	0.0011421
1834	0.0011797
1846	0.0007708
1858	0.0002914
1870	0.0001598
1882	0.0001269
1894	7.99e-05
1906	6.11e-05
1918	6.11e-05
1930	4.23e-05
1942	4.23e-05
1954	9.4e-05
1966	0.0001034
1978	0.0001457
1990	0.0001175
2002	8.46e-05
2014	3.76e-05
2026	4.23e-05
2038	2.82e-05
2050	4.7e-05
2062	5.64e-05
2074	4.7e-05
2086	6.11e-05
2098	6.11e-05
2110	7.05e-05
2122	0
2134	1.41e-05
2146	6.11e-05
2158	2.82e-05
2170	3.76e-05
2182	1.88e-05
2194	5.17e-05
2206	0
2218	3.29e-05
2230	3.76e-05
2242	5.17e-05
2254	7.05e-05
2266	7.52e-05
2278	0.0001034
2290	0.0001128
2302	0.0001175
2314	0.0001034
2326	8.93e-05
2338	6.58e-05
2350	0.0001175
2362	0.0001034
2374	0.0001222
2386	0.0001927
2398	0.0001551
2410	0.0001504
2422	0.0001645
2434	0.0001504
2446	0.0001598
2458	0.0001833
2470	0.0001175
2482	0.0001551
2494	0.000141
2506	0.0001222
2518	0.0001504
2530	0.0001927
2542	0.0002303
2554	0.0003055
2566	0.0003102
2578	0.0003478
2590	0.0003525
2602	0.0003713
2614	0.0003525
2626	0.0003807
2638	0.0003478
2650	0.0003337
2662	0.0003901
2674	0.0004371
2686	0.0004277
2698	0.0004841
2710	0.0005687
2722	0.0007238
2734	0.0008413
2746	0.0009353
2758	0.0009635
2770	0.0009447
2782	0.0010763
2794	0.0012267
2806	0.0015087
2818	0.0018988
2830	0.0025286
2842	0.0042676
2854	0.0081263
2866	0.0142786
2878	0.0193875
2890	0.0199374
2902	0.0192418
2914	0.0221558
2926	0.027871
2938	0.0297792
2950	0.0321339
2962	0.0438228
2974	0.0446265
2986	0.0330927
2998	0.0152609
3010	0.0082814
3022	0.0052781
3034	0.0037929
3046	0.0036472
3058	0.0046342
3070	0.0068244
3082	0.0087655
3094	0.0068103
3106	0.0039057
3118	0.0018424
3130	0.0013301
3142	0.0011844
3154	0.0010246
3166	0.0009917
3178	0.00094
3190	0.000799
3202	0.0007379
3214	0.0005593
3226	0.0003948
3238	0.000329
3250	0.0003055
3262	0.0002867
3274	0.0003008
3286	0.0002632
3298	0.0002585
3310	0.0002867
3322	0.0002162
3334	0.0001833
3346	0.0001692
3358	0.0001974
3370	0.0001645
3382	0.0001692
3394	0.0001504
3406	0.0001645
3418	0.0001269
3430	9.87e-05
3442	0.0001316
3454	0.0001034
3466	0.0001551
3478	0.0001363
3490	3.76e-05
3502	6.11e-05
3514	8.93e-05
3526	5.64e-05
3538	1.88e-05
3550	6.11e-05
3562	3.29e-05
3574	7.52e-05
3586	5.17e-05
3598	4.23e-05
3610	0
3622	6.11e-05
3634	0.0001222
3646	7.05e-05
3658	9.4e-05
3670	1.88e-05
3682	0.0001081
3694	0.0001269
3706	5.17e-05
3718	0.0001128
3730	3.29e-05
3742	1.88e-05
3754	0.0001316
3766	7.05e-05
3778	0.0001222
3790	5.17e-05
3802	0.0001081
3814	7.52e-05
3826	0.0001363
3838	8.46e-05
