Infrared Spectrum: Oxirane, ethyl-
Formula: C 4 H 8 O
CAS: 106-88-7
State: gas
Origin: Sadtler Research Labs Under US-EPA Contract
1/CM	ABSORBANCE
450	0.0786879
462	0.0663994
474	0.0337677
486	0.0267456
498	0.0117722
510	0.00660896
522	0.00857099
534	0.00330448
546	0.00712528
558	0.00733181
570	0.000309795
582	0.00660896
594	0.00671222
606	0.00660896
618	0.00764161
630	0.00547304
642	0.00640243
654	0.00629916
666	0.00629916
678	0.00526651
690	0.00567958
702	0.00764161
714	0.0167289
726	0.0334579
738	0.0470888
750	0.0647472
762	0.0539043
774	0.0638178
786	0.065057
798	0.0886014
810	0.139511
822	0.25176
834	0.341394
846	0.360808
858	0.210764
870	0.110803
882	0.152316
894	0.265701
906	0.335508
918	0.308866
930	0.217579
942	0.129494
954	0.0843675
966	0.0547304
978	0.0405831
990	0.039757
1002	0.0528717
1014	0.0666059
1026	0.0700137
1038	0.0736279
1050	0.0571055
1062	0.0392407
1074	0.0304632
1086	0.0374852
1098	0.0503933
1110	0.0552468
1122	0.0519423
1134	0.0459529
1146	0.0421321
1158	0.0361428
1170	0.0238542
1182	0.0161093
1194	0.0119787
1206	0.0130114
1218	0.0174518
1230	0.0356264
1242	0.0596872
1254	0.0794108
1266	0.0709431
1278	0.0546272
1290	0.0389309
1302	0.0507031
1314	0.0551435
1326	0.0509096
1338	0.0271587
1350	0.0196203
1362	0.0264358
1374	0.0410995
1386	0.0597904
1398	0.11101
1410	0.132902
1422	0.135793
1434	0.104194
1446	0.105434
1458	0.145604
1470	0.164604
1482	0.158512
1494	0.110907
1506	0.0618557
1518	0.0259195
1530	0.0150767
1542	0.0132179
1554	0.0147669
1566	0.0157995
1578	0.0167289
1590	0.0128049
1602	0.00929385
1614	0.00908732
1626	0.0082612
1638	0.00960364
1650	0.0106363
1662	0.0116689
1674	0.0107396
1686	0.00970691
1698	0.00764161
1710	0.0058861
1722	0.00660896
1734	0.00805467
1746	0.00815793
1758	0.00712528
1770	0.00423386
1782	0.00320121
1794	0.00299468
1806	0.00268489
1818	0.00299468
1830	0.00247836
1842	0.00268489
1854	0.00258162
1866	0.00196203
1878	0.0020653
1890	0.00165224
1902	0.0017555
1914	0.0017555
1926	0.0017555
1938	0.00216856
1950	0.00278816
1962	0.00227183
1974	0.00320121
1986	0.00320121
1998	0.00320121
2010	0.00299468
2022	0.00361427
2034	0.00423386
2046	0.00547304
2058	0.00454366
2070	0.00505998
2082	0.00485345
2094	0.00289142
2106	0.00103265
2118	0.000516325
2130	0.00123918
2142	0.00237509
2154	0.00361427
2166	0.00371754
2178	0.00433713
2190	0.00444039
2202	0.00495672
2214	0.00557631
2226	0.0061959
2238	0.00898405
2250	0.0111526
2262	0.0108428
2274	0.00919058
2286	0.00660896
2298	0.00671222
2310	0.00671222
2322	0.00650569
2334	0.00536978
2346	0.00196203
2358	0.00536978
2370	0.00123918
2382	0.00103265
2394	0.00278816
2406	0.00402733
2418	0.00309795
2430	0.00237509
2442	0.0020653
2454	0.00103265
2466	0.00134244
2478	0.000929385
2490	0.00103265
2502	0.00103265
2514	0.000722855
2526	0.000309795
2538	0.000722855
2550	0.00134244
2562	0.00144571
2574	0.00278816
2586	0.00351101
2598	0.00392407
2610	0.00361427
2622	0.0041306
2634	0.00309795
2646	0.00123918
2658	0.0017555
2670	0.00578284
2682	0.00743508
2694	0.00846773
2706	0.00898405
2718	0.0108428
2730	0.0130114
2742	0.0164191
2754	0.019104
2766	0.0204465
2778	0.0218922
2790	0.022615
2802	0.0256097
2814	0.0299468
2826	0.0396538
2838	0.0573121
2850	0.0802369
2862	0.120304
2874	0.18691
2886	0.271897
2898	0.319605
2910	0.377537
2922	0.443317
2934	0.550196
2946	0.626199
2958	0.718208
2970	0.918749
2982	1.03151
2994	0.886323
3006	0.551538
3018	0.357916
3030	0.293995
3042	0.32229
3054	0.302876
3066	0.217373
3078	0.0984115
3090	0.0425452
3102	0.0209628
3114	0.0161093
3126	0.0138375
3138	0.0142506
3150	0.0143538
3162	0.0148702
3174	0.0148702
3186	0.0127016
3198	0.0114624
3210	0.00929385
3222	0.00784814
3234	0.00526651
3246	0.00505998
3258	0.00330448
3270	0.00547304
3282	0.00805467
3294	0.00660896
3306	0.00629916
3318	0.00495672
3330	0.00536978
3342	0.00609263
3354	0.00815793
3366	0.00691875
3378	0.0082612
3390	0.00629916
3402	0.00691875
3414	0.00567958
3426	0.00629916
3438	0.00919058
3450	0.00877752
3462	0.00888079
3474	0.00764161
3486	0.00919058
3498	0.00671222
3510	0.00733181
3522	0.00671222
3534	0.00340774
3546	0.00454366
3558	0.00330448
3570	0.00433713
3582	0.000103265
3594	0.0020653
3606	0.00495672
3618	0.00526651
3630	0.00743508
3642	0.00444039
3654	0.00671222
3666	0.0041306
3678	0.0058861
3690	0.00774488
3702	0.00495672
3714	0.00278816
3726	0.00536978
3738	0.00691875
3750	0.00867426
3762	0.00495672
3774	0.00536978
3786	0.00929385
3798	0.00702202
3810	0.00702202
3822	0.00867426
3834	0.00805467
3846	0.0113592
3858	0.00877752
3870	0.00743508
3882	0.00629916
3894	0.0111526
3906	0.00929385
3918	0.00289142
3930	0.00970691
3942	0.00815793
3954	0.0102232
3966	0.0127016
