Infrared Spectrum: .gamma.-Thiobutyrolactone
Formula: C 4 H 6 O S
CAS: 1003-10-7
State: gas
Instrument: HP-GC/MS/IRD
Origin: NIST Mass Spectrometry Data Center
1/CM	ABSORBANCE
550	0.0004056
562	0.001508
574	0.003016
586	0.0043264
598	0.0073112
610	0.0112424
622	0.0113464
634	0.0086944
646	0.002392
658	0.000936
670	0.0007176
682	0.0007384
694	0.0006864
706	0.0004368
718	0.0001456
730	5.2e-05
742	4.16e-05
754	2.08e-05
766	0.0001456
778	0.000208
790	0.000468
802	0.0016848
814	0.003692
826	0.0041912
838	0.0038168
850	0.0023296
862	0.001768
874	0.0011648
886	0.0015288
898	0.0026624
910	0.0026832
922	0.0018408
934	0.00078
946	0.0006448
958	0.0010504
970	0.001768
982	0.0038584
994	0.0078936
1006	0.0106184
1018	0.0103896
1030	0.0091936
1042	0.01378
1054	0.016172
1066	0.0140712
1078	0.0068848
1090	0.0047736
1102	0.0043056
1114	0.0031512
1126	0.0013624
1138	0.0008632
1150	0.0009256
1162	0.0008736
1174	0.0006968
1186	0.000312
1198	0.0002808
1210	0.0006136
1222	0.0007696
1234	0.0008112
1246	0.0005928
1258	0.0012688
1270	0.0021216
1282	0.0023712
1294	0.0017264
1306	0.000832
1318	0.000416
1330	0.0003328
1342	0.0002184
1354	0.0001456
1366	0.000104
1378	0.000156
1390	0.0003848
1402	0.0011544
1414	0.0022256
1426	0.0029536
1438	0.0029536
1450	0.0028496
1462	0.0017888
1474	0.0008944
1486	0.000416
1498	0.0003016
1510	0.000208
1522	0.000208
1534	0.0001976
1546	0.000208
1558	0.0001976
1570	0.0002392
1582	0.0003536
1594	0.0004264
1606	0.0005616
1618	0.0008216
1630	0.0011024
1642	0.0014352
1654	0.0017992
1666	0.0026
1678	0.0039936
1690	0.0063024
1702	0.0111176
1714	0.0294112
1726	0.0790504
1738	0.102107
1750	0.0888056
1762	0.0261664
1774	0.0058864
1786	0.0026208
1798	0.0018824
1810	0.0017784
1822	0.00182
1834	0.0016848
1846	0.0014664
1858	0.0013936
1870	0.0014144
1882	0.0012688
1894	0.0009048
1906	0.000572
1918	0.0004472
1930	0.0003016
1942	0.0003224
1954	0.0002808
1966	0.0002392
1978	0.0001872
1990	0.0001664
2002	0.0001872
2014	0.0001872
2026	0.0002184
2038	0.0002912
2050	0.0003432
2062	0.0003432
2074	0.0003328
2086	0.0002808
2098	0.0003224
2110	0.0003536
2122	0.000312
2134	0.00026
2146	0.0002288
2158	0.000208
2170	0.0001872
2182	0.0001664
2194	0.0001456
2206	0.0001248
2218	0.0001352
2230	0.0001352
2242	0.0001352
2254	0.0001248
2266	0.000156
2278	0.0001976
2290	0.000208
2302	0.0002496
2314	0.0002704
2326	0.0002704
2338	0.0002184
2350	0.0001768
2362	0.0001664
2374	0.000104
2386	4.16e-05
2398	7.28e-05
2410	5.2e-05
2422	0.000104
2434	0.0001248
2446	0.0001456
2458	8.32e-05
2470	7.28e-05
2482	5.2e-05
2494	6.24e-05
2506	3.12e-05
2518	5.2e-05
2530	7.28e-05
2542	4.16e-05
2554	5.2e-05
2566	8.32e-05
2578	5.2e-05
2590	6.24e-05
2602	5.2e-05
2614	7.28e-05
2626	6.24e-05
2638	6.24e-05
2650	7.28e-05
2662	7.28e-05
2674	5.2e-05
2686	0.000104
2698	9.36e-05
2710	0.0001352
2722	0.0001768
2734	0.0002184
2746	0.000208
2758	0.0001976
2770	0.000156
2782	0.0001976
2794	0.0002496
2806	0.0003016
2818	0.0005096
2830	0.0006448
2842	0.00078
2854	0.0014352
2866	0.003068
2878	0.0041184
2890	0.003952
2902	0.0036088
2914	0.0041288
2926	0.0056056
2938	0.0077792
2950	0.0120432
2962	0.0139256
2974	0.012896
2986	0.0111488
2998	0.0048048
3010	0.0017472
3022	0.0005304
3034	0.0003224
3046	0.0002288
3058	0.000156
3070	0.0001768
3082	0.0001976
3094	0.0001976
3106	0.0001664
3118	0.0001352
3130	0.0001248
3142	6.24e-05
3154	9.36e-05
3166	0.0001248
3178	0.0001248
3190	8.32e-05
3202	0.0001144
3214	5.2e-05
3226	6.24e-05
3238	2.08e-05
3250	6.24e-05
3262	7.28e-05
3274	4.16e-05
3286	0.0001144
3298	4.16e-05
3310	3.12e-05
3322	6.24e-05
3334	8.32e-05
3346	0.0001248
3358	0.0001456
3370	0.0001872
3382	0.0001872
3394	0.0002288
3406	0.0002704
3418	0.0004264
3430	0.0008216
3442	0.0014976
3454	0.0019344
3466	0.0019448
3478	0.0011648
3490	0.0005408
3502	0.0003536
3514	0.0002912
3526	0.0002184
3538	0.0001768
3550	0.0001456
3562	0.0001352
3574	0.0001768
3586	0.0001352
3598	0.0001456
3610	0.000104
3622	9.36e-05
3634	5.2e-05
3646	0.0001248
3658	0.000104
3670	0.000104
3682	9.36e-05
3694	0.000104
3706	8.32e-05
3718	9.36e-05
3730	0.000104
3742	8.32e-05
3754	0.0001248
3766	0.0001456
3778	0.0001872
3790	0.0001872
3802	0.000104
3814	0.0001456
3826	0.0001352
3838	0.0001144
