Infrared Spectrum: Ethene, bromo-
Formula: C 2 H 3 Br
CAS: 593-60-2
State: gas
Origin: Sadtler Research Labs Under US-EPA Contract
1/CM	ABSORBANCE
450	0.00654335
462	0.00701923
474	0.00916069
486	0.00892275
498	0.0151092
510	0.0231991
522	0.0361669
534	0.0585332
546	0.0995779
558	0.156565
570	0.197133
582	0.469337
594	0.45399
606	0.586641
618	0.614123
630	0.389627
642	0.0856584
654	0.0324788
666	0.0274821
678	0.0187973
690	0.0130867
702	0.00773305
714	0.00345013
726	0.00380704
738	0.00309322
750	0.00226043
762	0.00297425
774	0.00321219
786	0.00440189
798	0.00630541
810	0.0101125
822	0.0179645
834	0.0352151
846	0.0657904
858	0.116234
870	0.183571
882	0.258403
894	0.314914
906	0.531796
918	0.46898
930	0.514902
942	0.87324
954	0.400334
966	0.398193
978	0.318364
990	0.348106
1002	0.342396
1014	0.249004
1026	0.111475
1038	0.0284338
1050	0.0105883
1062	0.00582953
1074	0.00428292
1086	0.00261734
1098	0.00273631
1110	0.00190352
1122	0.00202249
1134	0.00428292
1146	0.00725717
1158	0.00642438
1170	0.0122539
1182	0.00963657
1194	0.012016
1206	0.0140385
1218	0.0186783
1230	0.0732855
1242	0.439832
1254	0.458034
1266	0.561419
1278	0.325859
1290	0.0450896
1302	0.027839
1314	0.0367617
1326	0.0497295
1338	0.0947001
1350	0.0958898
1362	0.184522
1374	0.100649
1386	0.142526
1398	0.0644817
1410	0.0352151
1422	0.023794
1434	0.0161799
1446	0.0147523
1458	0.0261734
1470	0.047469
1482	0.0361669
1494	0.0494915
1506	0.0283149
1518	0.0259355
1530	0.0309322
1542	0.0287907
1554	0.0371186
1566	0.105288
1578	0.418061
1590	1.06823
1602	0.800549
1614	1.12641
1626	0.17786
1638	0.0221284
1650	0.00939863
1662	0.00511571
1674	0.00285528
1686	0.00309322
1698	0.00285528
1710	0.00178455
1722	0.00226043
1734	0.00345013
1746	0.00202249
1758	0.00345013
1770	0.00559159
1782	0.0152282
1794	0.0352151
1806	0.0283149
1818	0.0574625
1830	0.055321
1842	0.0380704
1854	0.0529416
1866	0.0254596
1878	0.0166558
1890	0.0141574
1902	0.00392601
1914	0.00226043
1926	0.00178455
1938	0.00297425
1950	0.0035691
1962	0.0035691
1974	0.00321219
1986	0.0023794
1998	0.00333116
2010	0.00309322
2022	0.00249837
2034	0.00214146
2046	0.00178455
2058	0.00142764
2070	0.00142764
2082	0.00178455
2094	0.0023794
2106	0.00190352
2118	0.0023794
2130	0.00190352
2142	0.00214146
2154	0.00226043
2166	0.00202249
2178	0.00261734
2190	0.00285528
2202	0.00321219
2214	0.00321219
2226	0.0035691
2238	0.00345013
2250	0.00808996
2262	0.00582953
2274	0.00892275
2286	0.00440189
2298	0.0023794
2310	0.00166558
2322	0.00095176
2334	0.00035691
2346	0.00166558
2358	0.00071382
2370	0.00154661
2382	0.00202249
2394	0.0023794
2406	0.00226043
2418	0.00178455
2430	0.00130867
2442	0.00130867
2454	0.00142764
2466	0.00142764
2478	0.00214146
2490	0.0023794
2502	0.00214146
2514	0.00166558
2526	0.00166558
2538	0.00178455
2550	0.00166558
2562	0.00249837
2574	0.00309322
2586	0.00368807
2598	0.00309322
2610	0.00463983
2622	0.00463983
2634	0.00345013
2646	0.00309322
2658	0.00178455
2670	0.00142764
2682	0.0011897
2694	0.00178455
2706	0.00130867
2718	0.00190352
2730	0.00226043
2742	0.00273631
2754	0.00226043
2766	0.00166558
2778	0.00166558
2790	0.00154661
2802	0.00226043
2814	0.00190352
2826	0.0023794
2838	0.00285528
2850	0.00273631
2862	0.00333116
2874	0.00249837
2886	0.00190352
2898	0.00214146
2910	0.00202249
2922	0.00214146
2934	0.00333116
2946	0.00368807
2958	0.00297425
2970	0.00380704
2982	0.00297425
2994	0.00678129
3006	0.0270062
3018	0.0454465
3030	0.0375945
3042	0.0386652
3054	0.0114211
3066	0.0385463
3078	0.079472
3090	0.0804237
3102	0.12123
3114	0.0562728
3126	0.0669801
3138	0.0202249
3150	0.0111832
3162	0.00666232
3174	0.00440189
3186	0.00416395
3198	0.00214146
3210	0.00261734
3222	0.00166558
3234	0.00095176
3246	0.00178455
3258	0.0011897
3270	0.00130867
3282	0.00142764
3294	0.0011897
3306	0.00095176
3318	0.00166558
3330	0.00130867
3342	0.00142764
3354	0.0023794
3366	0.00190352
3378	0.00392601
3390	0.00285528
3402	0.00249837
3414	0.00226043
3426	0.00285528
3438	0.00333116
3450	0.0035691
3462	0.00392601
3474	0.00273631
3486	0.00202249
3498	0.00142764
3510	0.00142764
3522	0.0011897
3534	0.00154661
3546	0.00059485
3558	0.00154661
3570	0.00059485
3582	0.00154661
3594	0.00202249
3606	0.00071382
3618	0.0011897
3630	0.00226043
3642	0.00202249
3654	0.00249837
3666	0.00130867
3678	0.00368807
3690	0.00452086
3702	0.00392601
3714	0.00452086
3726	0.00261734
3738	0.0047588
3750	0.00178455
3762	0.00226043
3774	0.00214146
3786	0.00261734
3798	0.00190352
3810	0.00273631
3822	0.0011897
3834	0.00142764
3846	0.00059485
3858	0.00142764
3870	0.00273631
3882	0.00107073
3894	0.00214146
3906	0.00214146
3918	0.00214146
3930	0.00071382
3942	0.00083279
3954	0.00226043
3966	0.00178455
