Infrared Spectrum: Ethyl vinyl sulfide
Formula: C 4 H 8 S
CAS: 627-50-9
State: gas
Origin: EPA-IR VAPOR PHASE LIBRARY
1/CM	ABSORBANCE
549.8	0.001856
559.445	0.002306
569.09	0.003806
578.734	0.005576
588.379	0.006236
598.024	0.005396
607.669	0.004456
617.313	0.003846
626.958	0.003286
636.603	0.003336
646.248	0.003796
655.893	0.003296
665.537	0.002646
675.182	0.002336
684.827	0.003086
694.472	0.004466
704.116	0.006996
713.761	0.008646
723.406	0.008876
733.051	0.005846
742.695	0.003106
752.34	0.001936
761.985	0.002346
771.63	0.002266
781.275	0.002686
790.919	0.002546
800.564	0.002266
810.209	0.002156
819.854	0.002476
829.498	0.003866
839.143	0.005996
848.788	0.008806
858.433	0.013566
868.078	0.013106
877.722	0.013376
887.367	0.012516
897.012	0.010896
906.657	0.009266
916.301	0.008636
925.946	0.008576
935.591	0.009586
945.236	0.012666
954.88	0.014646
964.525	0.014776
974.17	0.013856
983.815	0.012966
993.46	0.010226
1003.1	0.008566
1012.75	0.006686
1022.39	0.005266
1032.04	0.004696
1041.68	0.004856
1051.33	0.005656
1060.97	0.004806
1070.62	0.003546
1080.26	0.002336
1089.91	0.001666
1099.55	0.0006557
1109.2	0.001866
1118.84	0.001416
1128.49	0.000726
1138.13	0.0009535
1147.78	0.0005642
1157.42	0.0009234
1167.07	0.0012968
1176.71	0.0011545
1186.36	0.001466
1196	0.0011658
1205.64	0.001436
1215.29	0.003206
1224.93	0.003416
1234.58	0.005856
1244.22	0.012946
1253.87	0.018466
1263.51	0.019826
1273.16	0.015896
1282.8	0.007716
1292.45	0.004636
1302.09	0.003076
1311.74	0.002486
1321.38	0.002156
1331.03	0.001846
1340.67	0.001836
1350.32	0.002376
1359.96	0.003266
1369.61	0.004706
1379.25	0.006046
1388.9	0.006386
1398.54	0.005506
1408.18	0.004346
1417.83	0.004396
1427.47	0.005496
1437.12	0.007356
1446.76	0.008206
1456.41	0.007986
1466.05	0.006556
1475.7	0.005116
1485.34	0.003816
1494.99	0.002996
1504.63	0.002366
1514.28	0.002046
1523.92	0.002226
1533.57	0.002636
1543.21	0.003646
1552.86	0.005686
1562.5	0.010586
1572.15	0.021126
1581.79	0.030316
1591.44	0.029086
1601.08	0.025446
1610.73	0.007856
1620.37	0.002936
1630.01	0.001946
1639.66	0.001576
1649.3	0.0013032
1658.95	0.0011384
1668.59	0.0010692
1678.24	0.0010934
1687.88	0.0009808
1697.53	0.0009721
1707.17	0.0011228
1716.82	0.0010798
1726.46	0.0011744
1736.11	0.0011974
1745.75	0.0012898
1755.4	0.001476
1765.04	0.001576
1774.69	0.001736
1784.33	0.001696
1793.98	0.001466
1803.62	0.0012626
1813.27	0.001087
1822.91	0.000973
1832.55	0.0010089
1842.2	0.0008634
1851.84	0.0006916
1861.49	0.0007465
1871.13	0.0007129
1880.78	0.0006269
1890.42	0.0007944
1900.07	0.0009055
1909.71	0.0008679
1919.36	0.0006916
1929	0.000518
1938.65	0.0005001
1948.29	0.00038953
1957.94	0.00039461
1967.58	0.0002867
1977.23	0.0004558
1986.87	0.0004933
1996.52	0.0005042
2006.16	0.00041533
2015.81	0.000335434
2025.45	0.000443
2035.1	0.00037737
2044.74	0.00041495
2054.38	0.00037915
2064.03	0.000446
2073.67	0.0004737
2083.32	0.0004378
2092.96	0.00041818
2102.61	0.0003211
2112.25	0.00039357
2121.9	0.000184
2131.54	0.0002455
2141.19	0.0002483
2150.83	0.0002311
2160.48	0.0002993
2170.12	0.0002347
2179.77	0.0003033
2189.41	0.00041719
2199.06	0.000468
2208.7	0.00036328
2218.35	0.0006011
2227.99	0.0004522
2237.64	0.00040841
2247.28	0.0004664
2256.92	0.0004489
2266.57	0.00039633
2276.21	0.0004422
2285.86	0.0004875
2295.5	0.0004473
2305.15	0.0004539
2314.79	0.00035065
2324.44	0.0004007
2334.08	0.00039301
2343.73	0.00041435
2353.37	0.00034293
2363.02	0.0004108
2372.66	0.0004578
2382.31	0.0002629
2391.95	0.00040076
2401.6	0.0005179
2411.24	0.0003438
2420.89	0.0004032
2430.53	0.0004723
2440.18	0.0002456
2449.82	0.00041045
2459.47	0.000443
2469.11	0.0002598
2478.75	0.00037996
2488.4	0.00034389
2498.04	0.00039661
2507.69	0.0002738
2517.33	0.0002622
2526.98	0.000212
2536.62	0.0002719
2546.27	3.2e-05
2555.91	0.0002802
2565.56	0.000123
2575.2	0.000179
2584.85	0.000176
2594.49	0.0002282
2604.14	0.000177
2613.78	0.000225
2623.43	0.000197
2633.07	0.000175
2642.72	0.0002674
2652.36	0.000193
2662.01	0.0003905
2671.65	0.0004286
2681.29	0.000539
2690.94	0.0005644
2700.58	0.0006118
2710.23	0.0006201
2719.87	0.0005846
2729.52	0.0005856
2739.16	0.0007712
2748.81	0.0007782
2758.45	0.0005052
2768.1	0.0006587
2777.74	0.0007157
2787.39	0.0007957
2797.03	0.0009683
2806.68	0.0011832
2816.32	0.001446
2825.97	0.002206
2835.61	0.002946
2845.26	0.003716
2854.9	0.004646
2864.55	0.006316
2874.19	0.009256
2883.84	0.010746
2893.48	0.011496
2903.12	0.011026
2912.77	0.012426
2922.41	0.018546
2932.06	0.026246
2941.7	0.027106
2951.35	0.028136
2960.99	0.025546
2970.64	0.027296
2980.28	0.027536
2989.93	0.024226
2999.57	0.019576
3009.22	0.015186
3018.86	0.011806
3028.51	0.009016
3038.15	0.006596
3047.8	0.004736
3057.44	0.003986
3067.09	0.003846
3076.73	0.004466
3086.38	0.006046
3096.02	0.006566
3105.67	0.006346
3115.31	0.004686
3124.95	0.002306
3134.6	0.001686
3144.24	0.001426
3153.89	0.0011519
3163.53	0.0009898
3173.18	0.0007752
3182.82	0.0010545
3192.47	0.0008999
3202.11	0.0008898
3211.76	0.0009186
3221.4	0.0006171
3231.05	0.0006459
3240.69	0.00038486
3250.34	0.0002792
3259.98	0.0003643
3269.63	0.00036702
3279.27	0.0004956
3288.92	0.0006963
3298.56	0.0005102
3308.21	0.0004299
3317.85	0.000666
3327.49	9.1e-05
3337.14	0.00035078
3346.78	0.0002535
3356.43	0.00036721
3366.07	0.00035227
3375.72	0.00018
3385.36	0.0005041
3395.01	0.0004293
3404.65	0.00040934
3414.3	0.00040963
3423.94	0.0005333
3433.59	0.0003133
3443.23	0.00032175
3452.88	0.0004496
3462.52	3e-06
3472.17	0.00042344
3481.81	0.0005338
3491.46	0.000335208
3501.1	0.0004978
3510.75	0.0006698
3520.39	0.0003685
3530.04	0.00035443
3539.68	0.00041579
3549.32	0.00033943
3558.97	0.000654
3568.61	0.000216
3578.26	0.00040451
3587.9	0.000177
3597.55	0.0003054
3607.19	0.0002888
3616.84	0.0005055
3626.48	0.00042413
3636.13	0.0002776
3645.77	0.00038287
3655.42	0.00035903
3665.06	0.0002947
3674.71	0.0005465
3684.35	0.000244
3694	0.00037236
3703.64	0.0002918
3713.29	0.000666
3722.93	0.0002917
3732.58	0.00037828
3742.22	0.0003132
3751.86	0.0005559
3761.51	0.000328051
3771.15	0.0006601
3780.8	0.0002763
3790.44	0.0005747
3800.09	0.00036852
3809.73	0.0005245
3819.38	0.000211
3829.02	0.0003392
3838.67	0.0002943
3848.31	0.0004475
3857.96	0.0002532
3867.6	0.0002911
3877.25	0.00039941
3886.89	9.2e-05
3896.54	0.000196
3906.18	0.0005852
3915.83	0.00036383
3925.47	0.00036684
3935.12	0.00039361
3944.76	0.0005109
3954.41	0.0006681
3964.05	0.0006769
3973.69	0.000525
3983.34	0.0004905
3992.98	0.000439
