Infrared Spectrum: 1-BUTYNE, 3-CHLORO-
Formula: C4 H5 Cl
CAS: 21020-24-6
State: SOLUTION (10% IN CCl4 FOR 3800-1330 AND 10% IN CS2 FOR 1330-450 CM^-^1)
Class: COBLENTZ III
Instrument: DOW KBr FOREPRISM-GRATING
Instrument parameters: BLAZED AT 3.5, 12.0, 20.0 MICRON, CHANGED AT 5.0, 7.5, 14.9 MICRON
Sampling: TRANSMISSION
Path length: 0.010, 0.010CM
Resolution: 4
Origin: DOW CHEMICAL COMPANY
1/CM	TRANSMITTANCE
438.261	0.921
446.957	0.925
455.652	0.963
464.348	0.975
473.044	0.98
481.739	0.98
490.435	0.975
499.131	0.959
507.826	0.861
516.522	0.436
525.218	0.882
533.913	0.974
542.609	1.005
551.305	1.009
560	1.008
568.696	1
577.392	0.987
586.087	0.97
594.783	0.94
603.479	0.893
612.174	0.797
620.87	0.533
629.566	0.058
638.261	0.046
646.957	0.096
655.653	0.021
664.348	0
673.044	0.1801
681.74	0.585
690.435	0.809
699.131	0.912
707.827	0.963
716.522	0.99
725.218	1.001
733.914	1.013
742.609	1.031
751.305	1.027
760.001	1.031
768.696	1.039
777.392	1.034
786.088	1.034
794.784	1.038
803.479	1.029
812.175	1.019
820.871	1.01
829.566	0.989
838.262	0.88
846.958	0.5329
855.653	0.2911
864.349	0.794
873.045	0.9
881.74	0.963
890.436	0.994
899.132	0.987
907.827	1.014
916.523	1.025
925.219	1.029
933.914	1.035
942.61	1.034
951.306	1.025
960.001	1.002
968.697	0.946
977.393	0.8159
986.088	0.3888
994.784	0.5371
1003.48	0.933
1012.18	0.986
1020.87	0.987
1029.57	0.976
1038.26	0.978
1046.96	0.965
1055.65	0.91
1064.35	0.6759
1073.04	0.389
1081.74	0.76
1090.44	0.3829
1099.13	0.5752
1107.83	0.964
1116.52	1.009
1125.22	1.032
1133.91	1.031
1142.61	1.034
1151.31	1.036
1160	1.029
1168.7	1.02
1177.39	1.006
1186.09	1.001
1194.78	0.98
1203.48	0.917
1212.18	0.6959
1220.87	0.066
1229.57	0.5782
1238.26	0.851
1246.96	0.853
1255.65	0.779
1264.35	0.669
1273.05	0.688
1281.74	0.768
1290.44	0.767
1299.13	0.6319
1307.83	0.507
1316.52	0.806
1325.22	0.873
1333.92	0.887
1342.61	0.907
1351.31	0.895
1360	0.881
1368.7	0.836
1377.39	0.5481
1386.09	0.942
1394.78	0.956
1403.48	0.956
1412.18	0.945
1420.87	0.936
1429.57	0.899
1438.26	0.6539
1446.96	0.636
1455.65	0.904
1464.35	0.946
1473.05	0.945
1481.74	0.931
1490.44	0.904
1499.13	0.868
1507.83	0.816
1516.52	0.771
1525.22	0.729
1533.92	0.655
1542.61	0.559
1551.31	0.572
1560	0.648
1568.7	0.725
1577.39	0.751
1586.09	0.785
1594.79	0.866
1603.48	0.946
1612.18	0.99
1620.87	1.01
1629.57	1.019
1638.26	1.029
1646.96	1.034
1655.65	1.021
1664.35	1.014
1673.05	1.013
1681.74	1.012
1690.44	1.006
1699.13	0.99
1707.83	0.948
1716.52	0.842
1725.22	0.951
1733.92	0.982
1742.61	0.985
1751.31	0.998
1760	1.008
1768.7	1.016
1777.39	1.014
1786.09	1.014
1794.79	1.014
1803.48	1.014
1812.18	1.014
1820.87	1.014
1829.57	1.012
1838.26	1.012
1846.96	1.01
1855.66	1.012
1864.35	1.013
1873.05	1.013
1881.74	1.014
1890.44	1.012
1899.13	1.014
1907.83	1.017
1916.53	1.019
1925.22	1.016
1933.92	1.016
1942.61	1.014
1951.31	1.016
1960	1.025
1968.7	1.01
1977.39	1.008
1986.09	1.002
1994.79	1.021
2003.48	1.024
2012.18	1.025
2020.87	1.027
2029.57	1.025
2038.26	1.024
2046.96	1.024
2055.66	1.021
2064.35	1.024
2073.05	1.021
2081.74	1.021
2090.44	1.02
2099.13	1.0139
2107.83	0.9998
2116.53	0.9257
2125.22	0.9652
2133.92	1.0101
2142.61	1.016
2151.31	1.0191
2160	1.0201
2168.7	1.023
2177.4	1.02
2186.09	1.0191
2194.79	1.02
2203.48	1.0169
2212.18	1.016
2220.87	1.014
2229.57	1.013
2238.26	1.0129
2246.96	1.008
2255.66	1.004
2264.35	1.0009
2273.05	0.9967
2281.74	0.991
2290.44	0.9913
2299.13	0.995
2307.83	0.998
2316.53	1.0035
2325.22	1.006
2333.92	1.0008
2342.61	1.009
2351.31	1.006
2360	1.0104
2368.7	1.0122
2377.4	1.013
2386.09	1.013
2394.79	1.013
2403.48	1.012
2412.18	1.0075
2420.87	1.0008
2429.57	0.9915
2438.27	0.9959
2446.96	1.008
2455.66	1.0048
2464.35	1.006
2473.05	1.0133
2481.74	1.0137
2490.44	1.012
2499.14	1.009
2507.83	1.0074
2516.53	1.0047
2525.22	1.004
2533.92	1.008
2542.61	1.009
2551.31	1.008
2560	1.006
2568.7	1.0057
2577.4	1.002
2586.09	1
2594.79	1.0027
2603.48	1.005
2612.18	1.008
2620.87	1.008
2629.57	1.0056
2638.27	1.0027
2646.96	1.0014
2655.66	1.0006
2664.35	1.001
2673.05	1.0033
2681.74	1.005
2690.44	1.0046
2699.14	1.0032
2707.83	1.0016
2716.53	0.9992
2725.22	0.9988
2733.92	1
2742.61	1
2751.31	0.998
2760.01	0.998
2768.7	0.998
2777.4	0.997
2786.09	0.997
2794.79	0.995
2803.48	0.9877
2812.18	0.9786
2820.87	0.9857
2829.57	0.993
2838.27	0.9895
2846.96	0.9811
2855.66	0.9462
2864.35	0.8739
2873.05	0.9422
2881.74	0.9476
2890.44	0.9524
2899.14	0.969
2907.83	0.951
2916.53	0.9049
2925.22	0.6821
2933.92	0.7588
2942.61	0.8843
2951.31	0.906
2960.01	0.8873
2968.7	0.8319
2977.4	0.6202
2986.09	0.5825
2994.79	0.5526
3003.48	0.8004
3012.18	0.9442
3020.88	0.9746
3029.57	0.982
3038.27	0.99
3046.96	0.9936
3055.66	0.997
3064.35	1.001
3073.05	1
3081.74	1.001
3090.44	1.0056
3099.14	1.009
3107.83	1.009
3116.53	1.009
3125.22	1.008
3133.92	1.0086
3142.61	1.01
3151.31	1.01
3160.01	1.009
3168.7	1.009
3177.4	1.008
3186.09	1.0067
3194.79	1.0043
3203.48	1.0003
3212.18	0.9943
3220.88	0.994
3229.57	0.987
3238.27	0.98
3246.96	0.9603
3255.66	0.9468
3264.35	0.9093
3273.05	0.8304
3281.75	0.6601
3290.44	0.3751
3299.14	0.1241
3307.83	0.0093
3316.53	0.3831
3325.22	0.803
3333.92	0.9121
3342.62	0.9447
3351.31	0.966
3360.01	0.9735
3368.7	0.9775
3377.4	0.9815
3386.09	0.9898
3394.79	0.9938
3403.48	0.9966
3412.18	0.998
3420.88	1.002
3429.57	1.008
3438.27	1.009
3446.96	1.0082
3455.66	1.008
3464.35	1.006
3473.05	1.006
3481.75	1.006
3490.44	1.006
3499.14	1.006
3507.83	1.008
3516.53	1.0082
3525.22	1.008
3533.92	1.0089
3542.62	1.01
3551.31	1.006
3560.01	1.0077
3568.7	1.012
3577.4	1.0051
3586.09	1.004
3594.79	1.0022
3603.49	1.001
3612.18	1
3620.88	1
3629.57	1.001
3638.27	1.0009
3646.96	1.0049
3655.66	1.0041
3664.35	1.005
3673.05	1.005
3681.75	1.0021
3690.44	1.001
3699.14	0.997
3707.83	1.004
3716.53	1.002
3725.22	1.001
3733.92	1
3742.62	1
3751.31	1
3760.01	0.998
3768.7	1
3777.4	1
3786.09	0.998
3794.79	1.002
