Infrared Spectrum: 3-CHLORO-1-BUTYNE
Formula: C4 H5 Cl
CAS: 21020-24-6
State: SOLUTION (7% IN CHCl3)
Class: COBLENTZ
Instrument: PERKIN-ELMER
Sampling: TRANSMISSION
Path length: 0.010 CM CELL
Resolution: 4
Origin: ABBOTT LABORATORIES - WASHBURN
MICROMETERS	TRANSMITTANCE
2.062	0.901
2.10179	0.905
2.14157	0.91
2.18136	0.913
2.22114	0.915
2.26093	0.916
2.30072	0.918
2.3405	0.918
2.38029	0.916
2.42007	0.916
2.45986	0.92
2.49965	0.923
2.53943	0.9233
2.57922	0.92
2.619	0.9357
2.65879	0.938
2.69858	0.938
2.73836	0.936
2.77815	0.936
2.81793	0.935
2.85772	0.931
2.89751	0.928
2.93729	0.933
2.97708	0.925
3.01686	0.6834
3.05665	0.4314
3.09644	0.8534
3.13622	0.913
3.17601	0.933
3.21579	0.94
3.25558	0.9411
3.29537	0.9412
3.33515	0.9154
3.37494	0.7507
3.41472	0.84
3.45451	0.882
3.4943	0.9007
3.53408	0.9248
3.57387	0.9479
3.61365	0.955
3.65344	0.956
3.69323	0.9628
3.73301	0.966
3.7728	0.968
3.81258	0.97
3.85237	0.9682
3.89216	0.9651
3.93194	0.966
3.97173	0.966
4.01151	0.966
4.0513	0.9632
4.09109	0.9551
4.13087	0.9513
4.17066	0.9451
4.21044	0.945
4.25023	0.9509
4.29002	0.955
4.3298	0.955
4.36959	0.953
4.40937	0.95
4.44916	0.945
4.48895	0.945
4.52873	0.941
4.56852	0.941
4.6083	0.94
4.64809	0.9383
4.68788	0.9285
4.72766	0.8801
4.76745	0.9157
4.80723	0.9259
4.84702	0.928
4.88681	0.931
4.92659	0.93
4.96638	0.931
5.00616	0.931
5.04595	0.925
5.08574	0.925
5.12552	0.925
5.16531	0.9273
5.20509	0.933
5.24488	0.93
5.28467	0.9293
5.32445	0.93
5.36424	0.93
5.40402	0.9297
5.44381	0.9329
5.4836	0.928
5.52338	0.928
5.56317	0.926
5.60296	0.9308
5.64274	0.931
5.68253	0.9269
5.72231	0.925
5.7621	0.925
5.80189	0.9204
5.84167	0.9145
5.88146	0.915
5.92124	0.9143
5.96103	0.9147
6.00082	0.9149
6.0406	0.916
6.08039	0.921
6.12017	0.915
6.15996	0.9137
6.19975	0.916
6.23953	0.913
6.27932	0.913
6.3191	0.913
6.35889	0.918
6.39868	0.915
6.43846	0.918
6.47825	0.916
6.51803	0.915
6.55782	0.91
6.59761	0.911
6.63739	0.905
6.67718	0.908
6.71696	0.91
6.75675	0.9062
6.79654	0.9005
6.83632	0.8971
6.87611	0.875
6.91589	0.7518
6.95568	0.556
6.99547	0.7219
7.03525	0.8351
7.07504	0.86
7.11482	0.8728
7.15461	0.8808
7.1944	0.883
7.23418	0.8715
7.27397	0.756
7.31375	0.6712
7.35354	0.8192
7.39333	0.8653
7.43311	0.866
7.4729	0.858
7.51268	0.8559
7.55247	0.8478
7.59226	0.836
7.63204	0.7692
7.67183	0.6264
7.71161	0.6799
7.7514	0.7286
7.79119	0.746
7.83097	0.743
7.87076	0.7438
7.91054	0.7541
7.95033	0.7794
7.99012	0.7987
8.0299	0.8139
8.06969	0.8198
8.10947	0.8114
8.14926	0.7707
8.18905	0.6842
8.22883	0.6471
8.26862	0.646
8.3084	0.65
8.34819	0.659
8.38798	0.716
8.42776	0.8038
8.46755	0.8667
8.50733	0.8901
8.54712	0.8951
8.58691	0.9
8.62669	0.911
8.66648	0.91
8.70626	0.9108
8.74605	0.91
8.78584	0.91
8.82562	0.911
8.86541	0.91
8.90519	0.91
8.94498	0.9071
8.98477	0.8925
9.02455	0.8755
9.06434	0.8495
9.10412	0.802
9.14391	0.5816
9.1837	0.404
9.22348	0.6637
9.26327	0.7382
9.30305	0.7051
9.34284	0.5224
9.38263	0.55
9.42241	0.6697
9.4622	0.7747
9.50198	0.8129
9.54177	0.8364
9.58156	0.843
9.62134	0.8482
9.66113	0.851
9.70091	0.851
9.7407	0.85
9.78049	0.856
9.82027	0.8643
9.86006	0.863
9.89984	0.8595
9.93963	0.855
9.97942	0.841
10.0192	0.8084
10.059	0.6917
10.0988	0.4941
10.1386	0.3848
10.1783	0.5723
10.2181	0.7245
10.2579	0.7811
10.2977	0.8276
10.3375	0.836
10.3773	0.8493
10.4171	0.868
10.4568	0.8805
10.4966	0.885
10.5364	0.8838
10.5762	0.8902
10.616	0.89
10.6558	0.891
10.6956	0.891
10.7354	0.8912
10.7751	0.89
10.8149	0.888
10.8547	0.8865
10.8945	0.883
10.9343	0.881
10.9741	0.8805
11.0139	0.88
11.0536	0.88
11.0934	0.8776
11.1332	0.876
11.173	0.876
11.2128	0.876
11.2526	0.876
11.2924	0.878
11.3321	0.8763
11.3719	0.8702
11.4117	0.865
11.4515	0.865
11.4913	0.863
11.5311	0.8592
11.5709	0.8294
11.6106	0.8017
11.6504	0.7255
11.6902	0.6099
11.73	0.449
11.7698	0.458
11.8096	0.6008
11.8494	0.6852
11.8891	0.7501
11.9289	0.7919
11.9687	0.8209
12.0085	0.8355
12.0483	0.851
12.0881	0.8554
12.1279	0.8586
12.1676	0.866
12.2074	0.87
12.2472	0.8729
12.287	0.875
12.3268	0.875
12.3666	0.875
12.4064	0.875
12.4461	0.875
12.4859	0.8772
12.5257	0.883
12.5655	0.885
12.6053	0.8875
12.6451	0.8902
12.6849	0.891
12.7247	0.89
12.7644	0.89
12.8042	0.89
12.844	0.89
12.8838	0.89
12.9236	0.89
12.9634	0.89
13.0032	0.89
13.0429	0.89
13.0827	0.893
13.1225	0.896
13.1623	0.895
13.2021	0.8914
13.2419	0.893
13.2817	0.893
13.3214	0.895
13.3612	0.8931
13.401	0.893
13.4408	0.8943
13.4806	0.893
13.5204	0.893
13.5602	0.893
13.5999	0.893
13.6397	0.893
13.6795	0.891
13.7193	0.895
13.7591	0.8946
13.7989	0.891
13.8387	0.891
13.8784	0.891
13.9182	0.891
13.958	0.891
13.9978	0.8887
14.0376	0.888
14.0774	0.8839
14.1172	0.875
14.1569	0.871
14.1967	0.8593
14.2365	0.8501
14.2763	0.8246
14.3161	0.8009
14.3559	0.7762
14.3957	0.7662
14.4354	0.7405
14.4752	0.7202
14.515	0.6904
14.5548	0.6568
14.5946	0.627
14.6344	0.6018
14.6742	0.5477
14.714	0.4976
14.7537	0.447
14.7935	0.4103
14.8333	0.3797
14.8731	0.365
14.9129	0.3678
14.9527	0.3798
14.9925	0.3876
15.0322	0.398
15.072	0.4148
15.1118	0.4196
15.1516	0.3621
15.1914	0.3015
15.2312	0.2695
15.271	0.2576
15.3107	0.253
15.3505	0.2498
15.3903	0.245
15.4301	0.243
