Infrared Spectrum: Silicon tetrafluoride
Formula: F4 Si
CAS: 7783-61-1
State: GAS (490 mmHg, N2 ADDED, TOTAL PRESSURE 600 mmHg)
Class: COBLENTZ
Instrument: DOW KBr FOREPRISM-GRATING
Instrument parameters: GRATING CHANGED AT 5.0, 7.5, 15.0 MICRON
Sampling: TRANSMISSION
Path length: 5 CM
Resolution: 2
Origin: DOW CHEMICAL COMPANY
1/CM	TRANSMITTANCE
463	0.8425
472	0.8415
481	0.8392
490	0.8358
499	0.8318
508	0.8281
517	0.8256
526	0.8255
535	0.8254
544	0.8263
553	0.8273
562	0.8299
571	0.834
580	0.8387
589	0.8415
598	0.8431
607	0.8438
616	0.8447
625	0.8453
634	0.8454
643	0.8457
652	0.8448
661	0.8457
670	0.8375
679	0.8493
688	0.8541
697	0.8554
706	0.8571
715	0.859
724	0.8575
733	0.8512
742	0.8371
751	0.8202
760	0.7917
769	0.734
778	0.7506
787	0.7347
796	0.7821
805	0.8378
814	0.8527
823	0.8544
832	0.8516
841	0.7474
850	0.7826
859	0.8573
868	0.8568
877	0.8538
886	0.8499
895	0.8467
904	0.8415
913	0.8409
922	0.8465
931	0.8542
940	0.8567
949	0.855
958	0.851
967	0.8439
976	0.8256
985	0.7837
994	0.6762
1003	0.0208
1012	0.0041
1021	0.008
1030	0.009
1039	0.0107
1048	0.1627
1057	0.5684
1066	0.5706
1075	0.8141
1084	0.8186
1093	0.8551
1102	0.8587
1111	0.8586
1120	0.8573
1129	0.8548
1138	0.8432
1147	0.7805
1156	0.6475
1165	0.6411
1174	0.408
1183	0.2629
1192	0.2334
1201	0.37
1210	0.4105
1219	0.6765
1228	0.7821
1237	0.8241
1246	0.8045
1255	0.7765
1264	0.6449
1273	0.505
1282	0.3778
1291	0.2901
1300	0.4152
1309	0.499
1318	0.7225
1327	0.8174
1336	0.8442
1345	0.8433
1354	0.8398
1363	0.8418
1372	0.8343
1381	0.8295
1390	0.8264
1399	0.8265
1408	0.8275
1417	0.8301
1426	0.8336
1435	0.8386
1444	0.8384
1453	0.8338
1462	0.8331
1471	0.839
1480	0.8375
1489	0.8357
1498	0.8354
1507	0.8357
1516	0.8363
1525	0.837
1534	0.8375
1543	0.8382
1552	0.8386
1561	0.8371
1570	0.8395
1579	0.8386
1588	0.838
1597	0.8388
1606	0.8394
1615	0.8398
1624	0.84
1633	0.8399
1642	0.8402
1651	0.8391
1660	0.8345
1669	0.8321
1678	0.8306
1687	0.8298
1696	0.829
1705	0.8275
1714	0.8274
1723	0.8274
1732	0.8277
1741	0.8277
1750	0.8275
1759	0.8275
1768	0.8259
1777	0.8188
1786	0.8012
1795	0.7497
1804	0.6499
1813	0.5683
1822	0.1743
1831	0.196
1840	0.8215
1849	0.8273
1858	0.8297
1867	0.8296
1876	0.8304
1885	0.8314
1894	0.8318
1903	0.8318
1912	0.8316
1921	0.8312
1930	0.8308
1939	0.8303
1948	0.8297
1957	0.8289
1966	0.8281
1975	0.8266
1984	0.8216
1993	0.8158
2002	0.8217
2011	0.8019
2020	0.7765
2029	0.7254
2038	0.6451
2047	0.5621
2056	0.4978
2065	0.546
2074	0.5274
2083	0.6528
2092	0.7744
2101	0.8228
2110	0.84
2119	0.846
2128	0.8473
2137	0.8473
2146	0.8471
2155	0.8464
2164	0.8457
2173	0.8447
2182	0.8427
2191	0.8352
2200	0.8243
2209	0.8164
2218	0.822
2227	0.8265
2236	0.808
2245	0.8131
2254	0.8337
2263	0.8473
2272	0.8494
2281	0.8484
2290	0.8464
2299	0.8427
2308	0.8383
2317	0.8328
2326	0.8274
2335	0.8233
2344	0.8255
2353	0.8314
2362	0.8332
2371	0.8368
2380	0.8432
2389	0.8482
2398	0.8512
2407	0.8518
2416	0.8513
2425	0.851
2434	0.851
2443	0.8512
2452	0.8514
2461	0.8516
2470	0.8517
2479	0.8511
2488	0.8506
2497	0.8502
2506	0.8501
2515	0.85
2524	0.8499
2533	0.8497
2542	0.8493
2551	0.8488
2560	0.8484
2569	0.8478
2578	0.8475
2587	0.8478
2596	0.8482
2605	0.8485
2614	0.8489
2623	0.8491
2632	0.8496
2641	0.8501
2650	0.8507
2659	0.8512
2668	0.8517
2677	0.8521
2686	0.8527
2695	0.8532
2704	0.8537
2713	0.8541
2722	0.8544
2731	0.8545
2740	0.8547
2749	0.8547
2758	0.8547
2767	0.8548
2776	0.8545
2785	0.8539
2794	0.8534
2803	0.8528
2812	0.8523
2821	0.8515
2830	0.8503
2839	0.849
2848	0.8478
2857	0.8463
2866	0.8461
2875	0.8478
2884	0.8494
2893	0.85
2902	0.8501
2911	0.849
2920	0.8451
2929	0.8399
2938	0.8381
2947	0.839
2956	0.8404
2965	0.8424
2974	0.8451
2983	0.8473
2992	0.8488
3001	0.8496
3010	0.8504
3019	0.8504
3028	0.85
3037	0.8495
3046	0.849
3055	0.8484
3064	0.8483
3073	0.8502
3082	0.8525
3091	0.853
3100	0.8524
3109	0.8518
3118	0.8515
3127	0.8515
3136	0.8518
3145	0.852
3154	0.8521
3163	0.8523
3172	0.8521
3181	0.8521
3190	0.852
3199	0.8518
3208	0.8518
3217	0.8518
3226	0.8517
3235	0.8514
3244	0.8512
3253	0.8508
3262	0.8506
3271	0.8503
3280	0.8502
3289	0.8501
3298	0.85
3307	0.8499
3316	0.8498
3325	0.8501
3334	0.8506
3343	0.851
3352	0.8515
3361	0.8518
3370	0.8523
3379	0.8524
3388	0.8525
3397	0.8525
3406	0.8527
3415	0.8528
3424	0.8528
3433	0.8531
3442	0.8533
3451	0.8534
3460	0.8536
3469	0.8538
3478	0.8538
3487	0.8537
3496	0.8536
3505	0.8536
3514	0.8537
3523	0.8539
3532	0.8542
3541	0.8544
3550	0.855
3559	0.8556
3568	0.8563
3577	0.8554
3586	0.854
3595	0.8539
3604	0.8539
3613	0.8539
3622	0.8538
3631	0.8538
3640	0.8537
3649	0.8534
3658	0.853
3667	0.8525
3676	0.8525
3685	0.8532
3694	0.8541
3703	0.8549
3712	0.8544
3721	0.854
3730	0.8542
3739	0.8543
3748	0.8543
3757	0.8541
3766	0.8543
3775	0.8547
3784	0.8554
3793	0.8561
