Infrared Spectrum: Silane, tetrafluoro-
Formula: F 4 Si
CAS: 7783-61-1
State: gas
Origin: Sadtler Research Labs Under US-EPA Contract
1/CM	ABSORBANCE
450	0.0190647
462	0.00748695
474	0.00409081
486	0.00602043
498	0.0108059
510	0.00586606
522	0.00571169
534	0.00594324
546	0.00833598
558	0.0077185
570	0.00825879
582	0.0046311
594	0.00656072
606	0.00671509
618	0.00787287
630	0.00725539
642	0.00632917
654	0.00756413
666	0.00802724
678	0.00625198
690	0.00640635
702	0.0077185
714	0.00764132
726	0.00725539
738	0.00864472
750	0.0108059
762	0.0110375
774	0.0101112
786	0.00849035
798	0.00825879
810	0.00980249
822	0.0092622
834	0.0132758
846	0.0106515
858	0.00787287
870	0.00671509
882	0.00509421
894	0.00686946
906	0.00640635
918	0.00725539
930	0.00756413
942	0.00640635
954	0.00694665
966	0.010034
978	0.0147423
990	0.0334983
1002	0.0712418
1014	0.24074
1026	0.77185
1038	0.293303
1050	0.0162089
1062	0.00640635
1074	0.00795005
1086	0.00555732
1098	0.00493984
1110	0.00594324
1122	0.00656072
1134	0.00671509
1146	0.00864472
1158	0.00980249
1170	0.0153598
1182	0.0188331
1194	0.0216118
1206	0.0189103
1218	0.0123496
1230	0.00864472
1242	0.00918501
1254	0.00833598
1266	0.00864472
1278	0.00779569
1290	0.00640635
1302	0.00632917
1314	0.00540295
1326	0.00486266
1338	0.00470829
1350	0.00493984
1362	0.00439955
1374	0.00509421
1386	0.00493984
1398	0.00493984
1410	0.00540295
1422	0.00571169
1434	0.0056345
1446	0.00540295
1458	0.00540295
1470	0.00509421
1482	0.00432236
1494	0.00416799
1506	0.00432236
1518	0.00393644
1530	0.00378206
1542	0.00393644
1554	0.0036277
1566	0.00324177
1578	0.00339614
1590	0.00331896
1602	0.00355051
1614	0.00301022
1626	0.0030874
1638	0.00277866
1650	0.00339614
1662	0.00285585
1674	0.00285585
1686	0.00270148
1698	0.00262429
1710	0.00301022
1722	0.00285585
1734	0.00301022
1746	0.00293303
1758	0.00277866
1770	0.00331896
1782	0.00293303
1794	0.0030874
1806	0.00339614
1818	0.00455392
1830	0.00416799
1842	0.00262429
1854	0.00262429
1866	0.00262429
1878	0.00216118
1890	0.00246992
1902	0.00246992
1914	0.00231555
1926	0.00239274
1938	0.00246992
1950	0.00216118
1962	0.00223836
1974	0.00246992
1986	0.00208399
1998	0.00223836
2010	0.00254711
2022	0.00231555
2034	0.00231555
2046	0.00254711
2058	0.00231555
2070	0.00262429
2082	0.00216118
2094	0.00192962
2106	0.00216118
2118	0.00185244
2130	0.00169807
2142	0.00200681
2154	0.00146652
2166	0.00177526
2178	0.00123496
2190	0.00131215
2202	0.00146652
2214	0.00131215
2226	0.00138933
2238	0.0015437
2250	0.00138933
2262	0.0015437
2274	0.00169807
2286	0.00146652
2298	0.0015437
2310	0.00223836
2322	0.00192962
2334	0.0015437
2346	0.0015437
2358	0.00192962
2370	0.000231555
2382	0.00131215
2394	0.00131215
2406	0.00061748
2418	0.00092622
2430	0.00030874
2442	0.000849035
2454	0.00108059
2466	0.000849035
2478	0.00108059
2490	0.0010034
2502	0.000694665
2514	0.00061748
2526	0.000849035
2538	0.0010034
2550	0.00123496
2562	0.00077185
2574	0.0010034
2586	0.00131215
2598	0.00092622
2610	0.00092622
2622	0.00123496
2634	0.00123496
2646	0.00115777
2658	0.00061748
2670	0.00061748
2682	0.000849035
2694	0.00092622
2706	0.000694665
2718	0.00092622
2730	0.00123496
2742	0.00115777
2754	0.000849035
2766	0.00046311
2778	0.0010034
2790	0.00108059
2802	0.00123496
2814	0.00092622
2826	0.00123496
2838	0.00077185
2850	0.00115777
2862	0.00108059
2874	0.00115777
2886	0.000849035
2898	0.0010034
2910	0.00092622
2922	0.00115777
2934	0.00123496
2946	0.00138933
2958	0.00115777
2970	0.00123496
2982	0.00108059
2994	0.00092622
3006	0.00138933
3018	0.00077185
3030	0.00108059
3042	0.00092622
3054	0.00146652
3066	0.00138933
3078	0.00131215
3090	0.0010034
3102	0.00146652
3114	0.0010034
3126	0.00115777
3138	0.00138933
3150	0.00123496
3162	0.00138933
3174	0.0010034
3186	0.00123496
3198	0.00169807
3210	0.00123496
3222	0.00108059
3234	0.00092622
3246	0.00138933
3258	0.00061748
3270	0.000540295
3282	0.00146652
3294	0.00115777
3306	0.00108059
3318	0.000849035
3330	0.00108059
3342	0.0010034
3354	0.00115777
3366	0.00123496
3378	0.00131215
3390	0.00146652
3402	0.00138933
3414	0.00185244
3426	0.00146652
3438	0.00077185
3450	0.000694665
3462	0.00162089
3474	0.0015437
3486	0.00115777
3498	0.00192962
3510	0.00115777
3522	0.0010034
3534	0.00077185
3546	0.00131215
3558	0.00146652
3570	0.000849035
3582	0.00162089
3594	0.00177526
3606	0.000849035
3618	0.00138933
3630	0.00231555
3642	0.00108059
3654	0.00216118
3666	0.00108059
3678	0.00138933
3690	0.00246992
3702	0.0015437
3714	0.00216118
3726	0.00177526
3738	0.00493984
3750	0.00594324
3762	0.00648354
3774	0.00602043
3786	0.00138933
3798	0.0015437
3810	0.00223836
3822	0.000231555
3834	0.00108059
3846	0.00270148
3858	0.000231555
3870	0.00223836
3882	0.00131215
3894	0.00077185
3906	0.00092622
3918	0.00262429
3930	0.00092622
3942	0.00123496
3954	0.00177526
3966	0.00208399
