Infrared Spectrum: Ethane, 1,1,2-tribromo-
Formula: C 2 H 3 Br 3
CAS: 78-74-0
State: gas
Origin: Sadtler Research Labs Under US-EPA Contract
1/CM	ABSORBANCE
450	0.0117452
462	0.00342245
474	0.01649
486	0.00715604
498	0.00645599
510	0.0135342
522	0.0224015
534	0.01649
546	0.0208458
558	0.0782497
570	0.138065
582	0.00490033
594	0.0633931
606	0.379037
618	0.717004
630	0.12033
642	0.0192902
654	0.0192902
666	0.0174234
678	0.060593
690	0.182634
702	0.11753
714	0.0147788
726	0.0101896
738	0.00225571
750	0.00902283
762	0.0126786
774	0.00941174
786	0.00972287
798	0.0129898
810	0.0191346
822	0.01649
834	0.0144676
846	0.0140787
858	0.011123
870	0.0614486
882	0.217792
894	0.0775497
906	0.0128342
918	0.00661155
930	0.00746717
942	0.00248906
954	0.00560038
966	0.00746717
978	0.00715604
990	0.00451141
1002	0.0106563
1014	0.00995622
1026	0.00723382
1038	0.0157899
1050	0.0130675
1062	0.00591151
1074	0.00451141
1086	0.0101896
1098	0.00700047
1110	0.0230238
1122	0.0661933
1134	0.094973
1146	0.331044
1158	0.12702
1170	0.0132231
1182	0.0343023
1194	0.0522702
1206	0.0561593
1218	0.210559
1230	0.129431
1242	0.0183568
1254	0.0203791
1266	0.0682157
1278	0.0694602
1290	0.0188235
1302	0.00754495
1314	0.00560038
1326	0.0045892
1338	0.00832278
1350	0.00606707
1362	0.00902283
1374	0.0068449
1386	0.00505589
1398	0.0036558
1410	0.0143121
1422	0.0591929
1434	0.0563149
1446	0.0119008
1458	0.0140009
1470	0.00435585
1482	0.00194458
1494	0.00521146
1506	0.0073116
1518	0.00560038
1530	0.00474476
1542	0.0103451
1554	0.00482255
1566	0.00606707
1578	0.00598929
1590	0.00342245
1602	0.0031891
1614	0.00614486
1626	0.00513368
1638	0.00435585
1650	0.00583372
1662	0.00637821
1674	0.00482255
1686	0.00661155
1698	0.00972287
1710	0.00521146
1722	0.00536703
1734	0.00941174
1746	0.00746717
1758	0.00443363
1770	0.00630042
1782	0.00490033
1794	0.00497811
1806	0.00334467
1818	0.00575594
1830	0.00668934
1842	0.00661155
1854	0.00513368
1866	0.00614486
1878	0.0036558
1890	0.00490033
1902	0.00707825
1914	0.00528924
1926	0.00451141
1938	0.00466698
1950	0.00443363
1962	0.00217792
1974	0.0041225
1986	0.00482255
1998	0.00474476
2010	0.00435585
2022	0.00630042
2034	0.0041225
2046	0.00435585
2058	0.00435585
2070	0.00560038
2082	0.00357802
2094	0.00513368
2106	0.00591151
2118	0.00427807
2130	0.00248906
2142	0.00427807
2154	0.00350023
2166	0.00241127
2178	0.00420028
2190	0.00513368
2202	0.00474476
2214	0.00326689
2226	0.00583372
2238	0.00342245
2250	0.00474476
2262	0.00598929
2274	0.00886726
2286	0.00785608
2298	0.00863391
2310	0.00832278
2322	0.00676712
2334	0.008245
2346	0.00676712
2358	0.00381137
2370	0.014701
2382	0.0073116
2394	0.00637821
2406	0.00552259
2418	0.00668934
2430	0.00801165
2442	0.00591151
2454	0.00560038
2466	0.0073116
2478	0.00738939
2490	0.00482255
2502	0.00723382
2514	0.00560038
2526	0.00396693
2538	0.00505589
2550	0.00746717
2562	0.00505589
2574	0.00560038
2586	0.00707825
2598	0.00575594
2610	0.00396693
2622	0.00466698
2634	0.00560038
2646	0.00552259
2658	0.00482255
2670	0.00536703
2682	0.00482255
2694	0.00357802
2706	0.00591151
2718	0.0036558
2730	0.00388915
2742	0.00342245
2754	0.00723382
2766	0.00334467
2778	0.00451141
2790	0.00521146
2802	0.00474476
2814	0.00264462
2826	0.00606707
2838	0.00878948
2850	0.0045892
2862	0.00490033
2874	0.00622264
2886	0.00435585
2898	0.00303354
2910	0.00591151
2922	0.00528924
2934	0.00544481
2946	0.00707825
2958	0.0133787
2970	0.0208458
2982	0.0378025
2994	0.00785608
3006	0.00715604
3018	0.0134565
3030	0.0168789
3042	0.0116674
3054	0.00466698
3066	0.00497811
3078	0.00622264
3090	0.00575594
3102	0.00474476
3114	0.00715604
3126	0.00591151
3138	0.00521146
3150	0.00637821
3162	0.00723382
3174	0.00357802
3186	0.0045892
3198	0.00513368
3210	0.00645599
3222	0.00388915
3234	0.00894505
3246	0.00637821
3258	0.00443363
3270	0.00583372
3282	0.00840056
3294	0.00505589
3306	0.00528924
3318	0.0087117
3330	0.00793387
3342	0.00334467
3354	0.00653377
3366	0.00622264
3378	0.000700047
3390	0.00490033
3402	0.00606707
3414	0.00544481
3426	0.00357802
3438	0.00700047
3450	0.00420028
3462	0.00357802
3474	0.00404472
3486	0.00754495
3498	0.00311132
3510	0.00443363
3522	0.00622264
3534	0.00497811
3546	0.0041225
3558	0.00505589
3570	0.00552259
3582	0.00334467
3594	0.00715604
3606	0.00738939
3618	0.00536703
3630	0.00661155
3642	0.00692269
3654	0.00528924
3666	0.00513368
3678	0.00692269
3690	0.00863391
3702	0.00404472
3714	0.00738939
3726	0.00785608
3738	0.00606707
3750	0.00614486
3762	0.00583372
3774	0.00420028
3786	0.00552259
3798	0.00987844
3810	0.00925618
3822	0.00692269
3834	0.00583372
3846	0.0087117
3858	0.00567816
3870	0.00738939
3882	0.00980066
3894	0.0108896
3906	0.00707825
3918	0.00575594
3930	0.00311132
3942	0.00490033
3954	0
3966	0.000544481
