Infrared Spectrum: Methylisocyanate
Formula: C 2 H 3 N O
CAS: 624-83-9
State: gas
Instrument: HP-GC/MS/IRD
Origin: NIST Mass Spectrometry Data Center
1/CM	ABSORBANCE
550	0.0004114
562	0.000968
574	0.0021538
586	0.0041866
598	0.0082764
610	0.0114466
622	0.0124872
634	0.0064856
646	0.0037994
658	0.0031944
670	0.002662
682	0.0018634
694	0.0013552
706	0.0008954
718	0.0006292
730	0.0004356
742	0.0004114
754	0.0001694
766	0.0002662
778	0.0005566
790	0.0010406
802	0.0015488
814	0.0015972
826	0.0019602
838	0.0029766
850	0.004961
862	0.0060016
874	0.0062194
886	0.0049126
898	0.0017424
910	0.0009196
922	0.000726
934	0.0006776
946	0.0005082
958	0.0004114
970	0.0001694
982	0.0001452
994	2.42e-05
1006	0
1018	0.000121
1030	4.84e-05
1042	0.0001694
1054	0.000363
1066	0.0004114
1078	0.000484
1090	0.000605
1102	0.000605
1114	0.0007744
1126	0.0010648
1138	0.0011858
1150	0.0015246
1162	0.0015004
1174	0.00121
1186	0.0011374
1198	0.0010648
1210	0.0010406
1222	0.0009438
1234	0.0008228
1246	0.0006776
1258	0.0004598
1270	0.0003872
1282	0.0004114
1294	0.0004356
1306	0.0005324
1318	0.0006292
1330	0.0007502
1342	0.0010648
1354	0.0015004
1366	0.0021538
1378	0.003751
1390	0.0061468
1402	0.0090508
1414	0.0114224
1426	0.0097526
1438	0.0100188
1450	0.0055418
1462	0.0036058
1474	0.0031218
1486	0.0024684
1498	0.0022748
1510	0.0021054
1522	0.0018392
1534	0.0014762
1546	0.0012826
1558	0.0011858
1570	0.0009922
1582	0.000847
1594	0.0007986
1606	0.0007502
1618	0.0007744
1630	0.000726
1642	0.0006534
1654	0.0005566
1666	0.0004114
1678	0.0002904
1690	0.0001694
1702	0.0001452
1714	9.68e-05
1726	0
1738	2.42e-05
1750	4.84e-05
1762	0
1774	0
1786	0
1798	0
1810	4.84e-05
1822	0
1834	4.84e-05
1846	2.42e-05
1858	7.26e-05
1870	4.84e-05
1882	7.26e-05
1894	7.26e-05
1906	4.84e-05
1918	4.84e-05
1930	0.000121
1942	0.000121
1954	0.000121
1966	0.0001452
1978	0.0001452
1990	0.000242
2002	0.0003146
2014	0.0004114
2026	0.0005082
2038	0.0006292
2050	0.0007744
2062	0.0008954
2074	0.0012826
2086	0.0018392
2098	0.0027104
2110	0.0039204
2122	0.0044528
2134	0.005082
2146	0.0050336
2158	0.0050094
2170	0.0055418
2182	0.0071874
2194	0.0118338
2206	0.0223366
2218	0.0427372
2230	0.0771496
2242	0.125937
2254	0.179516
2266	0.210613
2278	0.239362
2290	0.209862
2302	0.176757
2314	0.158244
2326	0.0829092
2338	0.0628232
2350	0.0426646
2362	0.0118096
2374	0.0057838
2386	0.0037268
2398	0.0029282
2410	0.002904
2422	0.0035574
2434	0.0045254
2446	0.005808
2458	0.006534
2470	0.0062436
2482	0.0052998
2494	0.0035816
2506	0.0022022
2518	0.0012584
2530	0.000726
2542	0.0005324
2554	0.0005566
2566	0.0006292
2578	0.0005808
2590	0.0005566
2602	0.000605
2614	0.0005324
2626	0.0005082
2638	0.0004598
2650	0.0003388
2662	0.0002904
2674	0.0001694
2686	0.0001694
2698	7.26e-05
2710	0.000121
2722	4.84e-05
2734	9.68e-05
2746	7.26e-05
2758	0.0001452
2770	0.0002904
2782	0.0004598
2794	0.000847
2806	0.0015004
2818	0.001936
2830	0.0022022
2842	0.0021538
2854	0.0021054
2866	0.0025894
2878	0.0032912
2890	0.0043802
2902	0.0056386
2914	0.0064372
2926	0.0079618
2938	0.0100672
2950	0.011979
2962	0.010769
2974	0.011253
2986	0.0071632
2998	0.0052998
3010	0.0045012
3022	0.0042592
3034	0.0037026
3046	0.003146
3058	0.0029282
3070	0.0024442
3082	0.00242
3094	0.0023232
3106	0.00242
3118	0.0024442
3130	0.0026136
3142	0.00242
3154	0.0025894
3166	0.0026136
3178	0.0023716
3190	0.0016214
3202	0.001331
3214	0.0006776
3226	0.0001694
3238	0.0001694
3250	4.84e-05
3262	9.68e-05
3274	0.000121
3286	4.84e-05
3298	0
3310	0
3322	2.42e-05
3334	0.000121
3346	0.0001936
3358	0.000121
3370	0.0001452
3382	9.68e-05
3394	0.000121
3406	0.0001936
3418	4.84e-05
3430	0.0001452
3442	4.84e-05
3454	9.68e-05
3466	7.26e-05
3478	0.0001694
3490	0.0002178
3502	0.0002904
3514	0.000242
3526	0.0003146
3538	0.000363
3550	0.0003872
3562	0.0004598
3574	0.000484
3586	0.0007018
3598	0.000726
3610	0.0009922
3622	0.0011132
3634	0.0012826
3646	0.001573
3658	0.0017666
3670	0.002178
3682	0.002541
3694	0.0024926
3706	0.002662
3718	0.0024926
3730	0.0023474
3742	0.002178
3754	0.0019118
3766	0.0015972
3778	0.0012342
3790	0.0010406
3802	0.0010164
3814	0.0006776
3826	0.0005324
3838	0.000605
