Infrared Spectrum: METHYL ISOCYANATE
Formula: C2 H3 N O
CAS: 624-83-9
State: GAS (6 mmHg, N2 ADDED, TOTAL PRESSURE 600 mmHg)
Class: COBLENTZ
Instrument: BECKMAN IR-9 (GRATING)
Instrument parameters: ORDER CHANGES: 670, 1200, 2000 CM^-^1
Sampling: TRANSMISSION
Path length: 5 CM CELL
Resolution: 2
Origin: DOW CHEMICAL COMPANY
1/CM	TRANSMITTANCE
395.114	0.798
403.96	0.762
412.806	0.727
421.651	0.731
430.497	0.7739
439.343	0.828
448.189	0.867
457.035	0.905
465.881	0.932
474.726	0.952
483.572	0.972
492.418	0.986
501.264	0.998
510.11	1.001
518.956	1.009
527.801	1.013
536.647	1.021
545.493	1.021
554.339	1.023
563.185	1.019
572.031	1.015
580.876	1.005
589.722	0.998
598.568	0.968
607.414	0.95
616.26	0.938
625.106	0.934
633.951	0.9479
642.797	0.976
651.643	0.99
660.489	0.996
669.335	1
678.181	1.013
687.026	0.994
695.872	0.996
704.718	1
713.564	0.996
722.41	0.994
731.256	0.996
740.101	0.994
748.947	0.996
757.793	0.996
766.639	0.996
775.485	0.994
784.331	0.994
793.176	0.994
802.022	0.996
810.868	0.996
819.714	0.996
828.56	0.996
837.405	1
846.251	0.996
855.097	0.984
863.943	0.962
872.789	0.962
881.635	0.962
890.48	0.99
899.326	1.019
908.172	1.027
917.018	1.033
925.864	1.035
934.71	1.037
943.555	1.041
952.401	1.045
961.247	1.047
970.093	1.051
978.939	1.053
987.785	1.055
996.63	1.053
1005.48	1.051
1014.32	1.049
1023.17	1.045
1032.01	1.045
1040.86	1.045
1049.71	1.043
1058.55	1.043
1067.4	1.037
1076.24	1.035
1085.09	1.027
1093.93	1.035
1102.78	1.035
1111.63	1.033
1120.47	1.033
1129.32	1.033
1138.16	1.027
1147.01	1.017
1155.86	1.019
1164.7	1.025
1173.55	1.027
1182.39	1.031
1191.24	1.029
1200.08	1.041
1208.93	1.041
1217.78	1.039
1226.62	1.037
1235.47	1.043
1244.31	1.045
1253.16	1.045
1262.01	1.047
1270.85	1.049
1279.7	1.047
1288.54	1.047
1297.39	1.047
1306.23	1.049
1315.08	1.049
1323.93	1.047
1332.77	1.049
1341.62	1.049
1350.46	1.045
1359.31	1.045
1368.16	1.043
1377	1.039
1385.85	1.027
1394.69	1.007
1403.54	1.007
1412.38	0.976
1421.23	0.916
1430.08	0.924
1438.92	0.913
1447.77	0.954
1456.61	0.998
1465.46	1.007
1474.31	1.009
1483.15	1.015
1492	1.021
1500.84	1.021
1509.69	1.027
1518.53	1.031
1527.38	1.031
1536.23	1.033
1545.07	1.037
1553.92	1.037
1562.76	1.037
1571.61	1.037
1580.46	1.037
1589.3	1.037
1598.15	1.033
1606.99	1.033
1615.84	1.033
1624.68	1.031
1633.53	1.029
1642.38	1.031
1651.22	1.033
1660.07	1.033
1668.91	1.037
1677.76	1.035
1686.61	1.037
1695.45	1.039
1704.3	1.035
1713.14	1.037
1721.99	1.039
1730.83	1.039
1739.68	1.037
1748.53	1.037
1757.37	1.039
1766.22	1.039
1775.06	1.037
1783.91	1.037
1792.76	1.037
1801.6	1.037
1810.45	1.037
1819.29	1.035
1828.14	1.035
1836.98	1.037
1845.83	1.035
1854.68	1.033
1863.52	1.035
1872.37	1.035
1881.21	1.033
1890.06	1.033
1898.91	1.033
1907.75	1.035
1916.6	1.033
1925.44	1.035
1934.29	1.035
1943.13	1.035
1951.98	1.035
1960.83	1.035
1969.67	1.037
1978.52	1.037
1987.36	1.035
1996.21	1.033
2005.06	1.029
2013.9	1.024
2022.75	1.021
2031.59	1.021
2040.44	1.021
2049.28	1.023
2058.13	1.023
2066.98	1.023
2075.82	1.023
2084.67	1.02
2093.51	1.017
2102.36	1.0071
2111.2	0.9981
2120.05	0.993
2128.9	0.994
2137.74	0.999
2146.59	1.001
2155.43	1.006
2164.28	1.013
2173.13	1.0139
2181.97	1.015
2190.82	1.0071
2199.66	0.9741
2208.51	0.9362
2217.35	0.8388
2226.2	0.4727
2235.05	0.3205
2243.89	0.1776
2252.74	0.1636
2261.58	0.1137
2270.43	0.137
2279.28	0.1946
2288.12	0.209
2296.97	0.291
2305.81	0.4097
2314.66	0.4632
2323.5	0.5166
2332.35	0.5499
2341.2	0.7294
2350.04	0.8236
2358.89	0.8902
2367.73	0.9778
2376.58	0.9996
2385.43	1.0128
2394.27	1.0171
2403.12	1.017
2411.96	1.017
2420.81	1.011
2429.65	1.0032
2438.5	0.9931
2447.35	0.9801
2456.19	0.976
2465.04	0.9779
2473.88	0.9846
2482.73	0.9979
2491.58	1.0039
2500.42	1.0167
2509.27	1.019
2518.11	1.021
2526.96	1.0219
2535.8	1.0231
2544.65	1.023
2553.5	1.0212
2562.34	1.021
2571.19	1.019
2580.03	1.019
2588.88	1.019
2597.73	1.019
2606.57	1.021
2615.42	1.021
2624.26	1.021
2633.11	1.021
2641.95	1.021
2650.8	1.021
2659.65	1.021
2668.49	1.023
2677.34	1.0212
2686.18	1.021
2695.03	1.021
2703.88	1.021
2712.72	1.021
2721.57	1.0202
2730.41	1.019
2739.26	1.019
2748.1	1.019
2756.95	1.019
2765.8	1.019
2774.64	1.019
2783.49	1.0208
2792.33	1.019
2801.18	1.0114
2810.03	1.0062
2818.87	0.9962
2827.72	0.9968
2836.56	1.0028
2845.41	1.005
2854.25	1.0012
2863.1	0.998
2871.95	0.994
2880.79	0.99
2889.64	0.9786
2898.48	0.9692
2907.33	0.9587
2916.18	0.9452
2925.02	0.942
2933.87	0.9317
2942.71	0.9079
2951.56	0.899
2960.4	0.899
2969.25	0.9029
2978.1	0.9348
2986.94	0.9528
2995.79	0.956
3004.63	0.9628
3013.48	0.9658
3022.33	0.9668
3031.17	0.97
3040.02	0.9788
3048.86	0.982
3057.71	0.984
3066.55	0.9898
3075.4	0.992
3084.25	0.9957
3093.09	0.998
3101.94	0.994
3110.78	0.9913
3119.63	0.99
3128.48	0.9853
3137.32	0.986
3146.17	0.988
3155.01	0.986
3163.86	0.9853
3172.7	0.98
3181.55	0.9847
3190.4	0.988
3199.24	0.9873
3208.09	0.9877
3216.93	0.9967
3225.78	1.0026
3234.63	1.007
3243.47	1.005
3252.32	1.003
3261.16	1.003
3270.01	1
3278.85	1.001
3287.7	1.003
3296.55	1.003
3305.39	1.007
3314.24	1.0053
3323.08	1.0043
3331.93	0.994
3340.78	0.994
3349.62	0.994
3358.47	0.994
3367.31	0.994
3376.16	0.994
3385	0.9903
3393.85	0.988
3402.7	0.988
3411.54	0.988
3420.39	0.988
3429.23	0.986
3438.08	0.986
3446.93	0.986
3455.77	0.986
3464.62	0.988
3473.46	0.988
3482.31	0.99
3491.15	0.99
3500	0.99
3508.85	0.988
3517.69	0.988
3526.54	0.986
3535.38	0.988
3544.23	0.988
3553.08	0.988
3561.92	0.986
3570.77	0.984
3579.61	0.986
3588.46	0.986
3597.3	0.986
3606.15	0.984
3615	0.984
3623.84	0.982
3632.69	0.98
3641.53	0.978
3650.38	0.976
3659.23	0.97
3668.07	0.9644
3676.92	0.962
3685.76	0.9584
3694.61	0.956
3703.45	0.9576
3712.3	0.962
3721.15	0.9584
3729.99	0.9574
3738.84	0.956
3747.68	0.9546
3756.53	0.96
3765.38	0.964
3774.22	0.964
3783.07	0.966
3791.91	0.964
