Infrared Spectrum: METHYL ISOCYANATE
Formula: C2 H3 N O
CAS: 624-83-9
State: GAS (6 mmHg DILUTED WITH N2)
Class: COBLENTZ
Instrument: BECKMAN IR-9 (GRATING)
Instrument parameters: ORDER CHANGES AT 670, 1200, 2000 CM^-^1
Sampling: TRANSMISSION
Path length: 5 CM CELL
Resolution: 4
Origin: DOW CHEMICAL COMPANY
1/CM	TRANSMITTANCE
396.793	0.723
405.539	0.688
414.286	0.656
423.032	0.659
431.778	0.711
440.525	0.77
449.271	0.808
458.018	0.842
466.764	0.87
475.51	0.887
484.257	0.906
493.003	0.917
501.749	0.928
510.496	0.938
519.242	0.943
527.989	0.948
536.735	0.953
545.481	0.954
554.228	0.953
562.974	0.952
571.72	0.943
580.467	0.939
589.213	0.922
597.96	0.901
606.706	0.88
615.452	0.872
624.199	0.861
632.945	0.904
641.691	0.919
650.438	0.931
659.184	0.93
667.931	0.945
676.677	0.942
685.423	0.928
694.17	0.932
702.916	0.934
711.662	0.934
720.409	0.932
729.155	0.931
737.902	0.931
746.648	0.932
755.394	0.934
764.141	0.934
772.887	0.931
781.633	0.934
790.38	0.938
799.126	0.938
807.873	0.935
816.619	0.935
825.365	0.937
834.112	0.938
842.858	0.937
851.604	0.926
860.351	0.906
869.097	0.9
877.844	0.902
886.59	0.927
895.336	0.963
904.083	0.968
912.829	0.976
921.575	0.979
930.322	0.983
939.068	0.986
947.815	0.987
956.561	0.99
965.307	0.994
974.054	0.997
982.8	0.997
991.546	0.997
1000.29	0.995
1009.04	0.994
1017.79	0.99
1026.53	0.993
1035.28	0.99
1044.02	0.989
1052.77	0.99
1061.52	0.986
1070.26	0.984
1079.01	0.976
1087.76	0.98
1096.5	0.983
1105.25	0.982
1114	0.982
1122.74	0.98
1131.49	0.979
1140.23	0.974
1148.98	0.968
1157.73	0.972
1166.47	0.979
1175.22	0.983
1183.97	0.975
1192.71	0.989
1201.46	0.994
1210.21	0.994
1218.95	0.991
1227.7	0.995
1236.44	0.998
1245.19	0.998
1253.94	1
1262.68	1
1271.43	1.001
1280.18	1.001
1288.92	1.001
1297.67	1
1306.42	1.002
1315.16	1.002
1323.91	1.004
1332.66	1.004
1341.4	1.002
1350.15	1.002
1358.89	1.001
1367.64	0.998
1376.39	0.993
1385.13	0.976
1393.88	0.968
1402.63	0.956
1411.37	0.916
1420.12	0.87
1428.87	0.9
1437.61	0.868
1446.36	0.92
1455.1	0.956
1463.85	0.967
1472.6	0.969
1481.34	0.975
1490.09	0.984
1498.84	0.983
1507.58	0.987
1516.33	0.99
1525.08	0.993
1533.82	0.994
1542.57	0.998
1551.31	0.998
1560.06	0.997
1568.81	1
1577.55	1
1586.3	1
1595.05	0.998
1603.79	0.994
1612.54	0.994
1621.29	0.994
1630.03	0.993
1638.78	0.995
1647.52	0.997
1656.27	0.997
1665.02	0.998
1673.76	1
1682.51	1.001
1691.26	1.001
1700	1.004
1708.75	1.004
1717.5	1.004
1726.24	1.004
1734.99	1.004
1743.73	1.005
1752.48	1.005
1761.23	1.006
1769.97	1.006
1778.72	1.006
1787.47	1.005
1796.21	1.005
1804.96	1.005
1813.71	1.004
1822.45	1.004
1831.2	1.006
1839.94	1.008
1848.69	1.005
1857.44	1.006
1866.18	1.006
1874.93	1.006
1883.68	1.006
1892.42	1.006
1901.17	1.006
1909.92	1.006
1918.66	1.008
1927.41	1.008
1936.15	1.008
1944.9	1.008
1953.65	1.008
1962.39	1.008
1971.14	1.009
1979.89	1.009
1988.63	1.009
1997.38	1.008
2006.13	1.003
2014.87	0.998
2023.62	0.995
2032.36	0.997
2041.11	0.998
2049.86	0.998
2058.6	0.998
2067.35	0.998
2076.1	0.997
2084.84	0.9945
2093.59	0.991
2102.34	0.9851
2111.08	0.9771
2119.83	0.9715
2128.58	0.9685
2137.32	0.9715
2146.07	0.976
2154.81	0.9814
2163.56	0.9879
2172.31	0.99
2181.05	0.991
2189.8	0.9863
2198.55	0.9692
2207.29	0.9491
2216.04	0.9052
2224.79	0.7978
2233.53	0.514
2242.28	0.1674
2251.02	0.1356
2259.77	0.1254
2268.52	0.079
2277.26	0.1268
2286.01	0.1869
2294.76	0.1389
2303.5	0.2933
2312.25	0.3856
2321	0.4387
2329.74	0.4936
2338.49	0.535
2347.23	0.7173
2355.98	0.7965
2364.73	0.8568
2373.47	0.9428
2382.22	0.9796
2390.97	0.9934
2399.71	0.9974
2408.46	0.998
2417.21	0.997
2425.95	0.993
2434.7	0.9836
2443.44	0.9752
2452.19	0.9642
2460.94	0.96
2469.68	0.958
2478.43	0.9634
2487.18	0.975
2495.92	0.9848
2504.67	0.9944
2513.42	0.9988
2522.16	1.0027
2530.91	1.002
2539.65	1.002
2548.4	1.0046
2557.15	1.002
2565.89	1.0027
2574.64	1.0046
2583.39	1.004
2592.13	1.002
2600.88	1.0027
2609.63	1.004
2618.37	1.005
2627.12	1.005
2635.86	1.005
2644.61	1.005
2653.36	1.005
2662.1	1.005
2670.85	1.005
2679.6	1.005
2688.34	1.005
2697.09	1.005
2705.84	1.005
2714.58	1.005
2723.33	1.005
2732.07	1.005
2740.82	1.006
2749.57	1.008
2758.31	1.006
2767.06	1.005
2775.81	1.0047
2784.55	1.004
2793.3	1.004
2802.05	0.9994
2810.79	0.9924
2819.54	0.987
2828.28	0.9806
2837.03	0.9903
2845.78	0.993
2854.52	0.989
2863.27	0.987
2872.02	0.9827
2880.76	0.9797
2889.51	0.9726
2898.26	0.9574
2907	0.9487
2915.75	0.9342
2924.5	0.928
2933.24	0.9252
2941.99	0.9021
2950.73	0.8823
2959.48	0.8892
2968.23	0.8838
2976.97	0.9155
2985.72	0.9395
2994.47	0.945
3003.21	0.9483
3011.96	0.9523
3020.71	0.956
3029.45	0.958
3038.2	0.965
3046.94	0.9695
3055.69	0.9712
3064.44	0.978
3073.18	0.982
3081.93	0.9832
3090.68	0.986
3099.42	0.9855
3108.17	0.9815
3116.92	0.982
3125.66	0.9775
3134.41	0.9764
3143.15	0.979
3151.9	0.978
3160.65	0.9748
3169.39	0.971
3178.14	0.974
3186.89	0.976
3195.63	0.978
3204.38	0.978
3213.13	0.984
3221.87	0.9914
3230.62	0.9954
3239.36	0.997
3248.11	0.997
3256.86	0.995
3265.6	0.995
3274.35	0.994
3283.1	0.9972
3291.84	0.9984
3300.59	1
3309.34	1
3318.08	0.9966
3326.83	0.9886
3335.57	0.986
3344.32	0.987
3353.07	0.987
3361.81	0.989
3370.56	0.989
3379.31	0.9887
3388.05	0.984
3396.8	0.9838
3405.55	0.982
3414.29	0.98
3423.04	0.98
3431.78	0.9803
3440.53	0.982
3449.28	0.983
3458.02	0.982
3466.77	0.98
3475.52	0.982
3484.26	0.984
3493.01	0.984
3501.76	0.983
3510.5	0.982
3519.25	0.9817
3527.99	0.982
3536.74	0.983
3545.49	0.983
3554.23	0.983
3562.98	0.9817
3571.73	0.98
3580.47	0.98
3589.22	0.98
3597.97	0.98
3606.71	0.979
3615.46	0.979
3624.2	0.976
3632.95	0.975
3641.7	0.974
3650.44	0.9708
3659.19	0.967
3667.94	0.964
3676.68	0.9609
3685.43	0.957
3694.18	0.956
3702.92	0.9561
3711.67	0.957
3720.42	0.957
3729.16	0.9558
3737.91	0.954
3746.65	0.9542
3755.4	0.958
3764.15	0.961
3772.89	0.963
3781.64	0.963
3790.39	0.9609
