Infrared Spectrum: 2-METHYL-2-BUTANOL
Formula: C5 H12 O
CAS: 75-85-4
State: GAS (VAPOR)
Melting point: -12 C
Boiling point: 102 C
Class: COBLENTZ
Instrument: PERKIN-ELMER 21 (GRATING)
Sampling: TRANSMISSION
Path length: 10 CM
Resolution: 4
MICROMETERS	TRANSMITTANCE
2.002	0.753
2.03525	0.753
2.06851	0.755
2.10176	0.755
2.13502	0.757
2.16827	0.764
2.20152	0.766
2.23478	0.769
2.26803	0.77
2.30129	0.77
2.33454	0.765
2.36779	0.752
2.40105	0.765
2.4343	0.767
2.46756	0.769
2.50081	0.769
2.53406	0.771
2.56732	0.778
2.60057	0.78
2.63383	0.78
2.66708	0.783
2.70033	0.788
2.73359	0.784
2.76684	0.66
2.8001	0.761
2.83335	0.78
2.8666	0.782
2.89986	0.782
2.93311	0.782
2.96636	0.786
2.99962	0.791
3.03287	0.791
3.06613	0.797
3.09938	0.79
3.13263	0.779
3.16589	0.78
3.19914	0.786
3.2324	0.79
3.26565	0.784
3.2989	0.771
3.33216	0.375
3.36541	0.11
3.39867	0.179
3.43192	0.29
3.46517	0.33
3.49843	0.463
3.53168	0.661
3.56494	0.726
3.59819	0.758
3.63144	0.776
3.6647	0.776
3.69795	0.785
3.73121	0.791
3.76446	0.79
3.79771	0.79
3.83097	0.8
3.86422	0.804
3.89748	0.808
3.93073	0.811
3.96398	0.815
3.99724	0.819
4.03049	0.816
4.06375	0.819
4.097	0.817
4.13025	0.82
4.16351	0.821
4.19676	0.815
4.23002	0.832
4.26327	0.839
4.29652	0.846
4.32978	0.836
4.36303	0.828
4.39629	0.823
4.42954	0.823
4.46279	0.825
4.49605	0.829
4.5293	0.827
4.56256	0.826
4.59581	0.826
4.62906	0.826
4.66232	0.826
4.69557	0.827
4.72883	0.826
4.76208	0.826
4.79533	0.828
4.82859	0.827
4.86184	0.829
4.89509	0.829
4.92835	0.828
4.9616	0.828
4.99486	0.832
5.02811	0.83
5.06136	0.832
5.09462	0.834
5.12787	0.832
5.16113	0.83
5.19438	0.83
5.22763	0.829
5.26089	0.828
5.29414	0.827
5.3274	0.827
5.36065	0.829
5.3939	0.83
5.42716	0.828
5.46041	0.83
5.49367	0.828
5.52692	0.828
5.56017	0.827
5.59343	0.829
5.62668	0.821
5.65994	0.814
5.69319	0.809
5.72644	0.815
5.7597	0.819
5.79295	0.817
5.82621	0.823
5.85946	0.826
5.89271	0.832
5.92597	0.829
5.95922	0.829
5.99248	0.827
6.02573	0.823
6.05898	0.829
6.09224	0.828
6.12549	0.827
6.15875	0.827
6.192	0.829
6.22525	0.828
6.25851	0.825
6.29176	0.825
6.32502	0.821
6.35827	0.827
6.39152	0.829
6.42478	0.83
6.45803	0.828
6.49129	0.838
6.52454	0.833
6.55779	0.83
6.59105	0.828
6.6243	0.821
6.65755	0.79
6.69081	0.739
6.72406	0.67
6.75732	0.611
6.79057	0.56
6.82382	0.551
6.85708	0.555
6.89033	0.623
6.92359	0.679
6.95684	0.711
6.99009	0.732
7.02335	0.734
7.0566	0.705
7.08986	0.651
7.12311	0.559
7.15636	0.43
7.18962	0.352
7.22287	0.311
7.25613	0.314
7.28938	0.361
7.32263	0.451
7.35589	0.513
7.38914	0.559
7.4224	0.601
7.45565	0.622
7.4889	0.629
7.52216	0.638
7.55541	0.652
7.58867	0.663
7.62192	0.675
7.65517	0.68
7.68843	0.68
7.72168	0.682
7.75494	0.682
7.78819	0.672
7.82144	0.653
7.8547	0.627
7.88795	0.59
7.92121	0.561
7.95446	0.552
7.98771	0.538
8.02097	0.528
8.05422	0.545
8.08748	0.554
8.12073	0.566
8.15398	0.586
8.18724	0.605
8.22049	0.619
8.25375	0.616
8.287	0.601
8.32025	0.565
8.35351	0.534
8.38676	0.502
8.42002	0.479
8.45327	0.475
8.48652	0.469
8.51978	0.458
8.55303	0.453
8.58628	0.447
8.61954	0.432
8.65279	0.411
8.68605	0.391
8.7193	0.378
8.75255	0.373
8.78581	0.373
8.81906	0.384
8.85232	0.402
8.88557	0.429
8.91882	0.471
8.95208	0.507
8.98533	0.552
9.01859	0.59
9.05184	0.617
9.08509	0.621
9.11835	0.613
9.1516	0.595
9.18486	0.569
9.21811	0.55
9.25136	0.539
9.28462	0.521
9.31787	0.503
9.35113	0.491
9.38438	0.49
9.41763	0.497
9.45089	0.5
9.48414	0.508
9.5174	0.53
9.55065	0.554
9.5839	0.582
9.61716	0.616
9.65041	0.64
9.68367	0.664
9.71692	0.68
9.75017	0.695
9.78343	0.703
9.81668	0.709
9.84994	0.716
9.88319	0.721
9.91644	0.723
9.9497	0.727
9.98295	0.728
10.0162	0.73
10.0495	0.735
10.0827	0.746
10.116	0.75
10.1492	0.75
10.1825	0.741
10.2157	0.725
10.249	0.692
10.2822	0.63
10.3155	0.589
10.3487	0.553
10.382	0.535
10.4153	0.523
10.4485	0.469
10.4818	0.429
10.515	0.403
10.5483	0.403
10.5815	0.402
10.6148	0.375
10.648	0.365
10.6813	0.402
10.7145	0.451
10.7478	0.49
10.781	0.54
10.8143	0.594
10.8476	0.642
10.8808	0.691
10.9141	0.726
10.9473	0.75
10.9806	0.766
11.0138	0.777
11.0471	0.78
11.0803	0.782
11.1136	0.776
11.1468	0.759
11.1801	0.736
11.2133	0.715
11.2466	0.711
11.2799	0.703
11.3131	0.685
11.3464	0.669
11.3796	0.666
11.4129	0.682
11.4461	0.701
11.4794	0.716
11.5126	0.732
11.5459	0.748
11.5791	0.767
11.6124	0.778
11.6456	0.791
11.6789	0.802
11.7122	0.805
11.7454	0.81
11.7787	0.814
11.8119	0.816
11.8452	0.815
11.8784	0.813
11.9117	0.805
11.9449	0.804
11.9782	0.795
12.0114	0.786
12.0447	0.779
12.078	0.773
12.1112	0.771
12.1445	0.775
12.1777	0.773
12.211	0.773
12.2442	0.771
12.2775	0.771
12.3107	0.77
12.344	0.771
12.3772	0.771
12.4105	0.771
12.4437	0.771
12.477	0.775
12.5103	0.772
12.5435	0.775
12.5768	0.778
12.61	0.785
12.6433	0.791
12.6765	0.8
12.7098	0.801
12.743	0.802
12.7763	0.804
12.8095	0.807
12.8428	0.805
12.876	0.805
12.9093	0.809
12.9426	0.811
12.9758	0.807
13.0091	0.81
13.0423	0.81
13.0756	0.813
13.1088	0.81
13.1421	0.81
13.1753	0.811
13.2086	0.809
13.2418	0.808
13.2751	0.807
13.3083	0.805
13.3416	0.804
13.3749	0.804
13.4081	0.802
13.4414	0.801
13.4746	0.797
13.5079	0.792
13.5411	0.789
13.5744	0.785
13.6076	0.782
13.6409	0.778
13.6741	0.776
13.7074	0.777
13.7406	0.771
13.7739	0.767
13.8072	0.764
13.8404	0.76
13.8737	0.759
13.9069	0.758
13.9402	0.761
13.9734	0.761
14.0067	0.761
14.0399	0.76
14.0732	0.757
14.1064	0.759
14.1397	0.757
14.173	0.758
14.2062	0.755
14.2395	0.757
14.2727	0.755
14.306	0.753
14.3392	0.751
14.3725	0.751
14.4057	0.751
14.439	0.748
14.4722	0.746
14.5055	0.746
14.5387	0.741
14.572	0.739
14.6053	0.739
14.6385	0.738
14.6718	0.733
14.705	0.733
14.7383	0.727
14.7715	0.722
14.8048	0.721
14.838	0.72
14.8713	0.716
14.9045	0.713
14.9378	0.709
14.971	0.704
15.0043	0.703
