Infrared Spectrum: Amylene Hydrate
Formula: C 5 H 12 O
CAS: 75-85-4
State: gas
Origin: Sadtler Research Labs Under US-EPA Contract
1/CM	ABSORBANCE
450	0.0293724
462	0.0278722
474	0.0190289
486	0.0126333
498	0.00765893
510	0.00829059
522	0.00994871
534	0.00915913
546	0.00307936
558	0.00157916
570	0.00102645
582	0.00268457
594	0.00197395
606	0.00331624
618	0.00292145
630	0.00189499
642	0.00331624
654	0.00315832
666	0.00173708
678	0.00410582
690	0.00465852
702	0.00773788
714	0.0118437
726	0.0161074
738	0.00963288
750	0.00355311
762	0.0030004
774	0.00450061
786	0.00797476
798	0.00465852
810	0.0024477
822	0.00363207
834	0.00260561
846	0.00710622
858	0.0258982
870	0.0633243
882	0.0963288
894	0.0686935
906	0.0397948
918	0.079037
930	0.147494
942	0.176471
954	0.100987
966	0.0316622
978	0.0180814
990	0.0247928
1002	0.0340309
1014	0.0392421
1026	0.0446113
1038	0.0609556
1050	0.077142
1062	0.0654562
1074	0.0404265
1086	0.0292934
1098	0.0392421
1110	0.0712991
1122	0.121516
1134	0.15989
1146	0.158153
1158	0.151284
1170	0.174576
1182	0.208291
1194	0.201975
1206	0.144019
1218	0.0952233
1230	0.0772209
1242	0.0709832
1254	0.0737468
1266	0.0772999
1278	0.0737468
1290	0.0716149
1302	0.071378
1314	0.0710622
1326	0.0727203
1338	0.0724834
1350	0.0908017
1362	0.143625
1374	0.215792
1386	0.190684
1398	0.0936442
1410	0.0356101
1422	0.0239243
1434	0.0331624
1446	0.0606397
1458	0.0989344
1470	0.110304
1482	0.0729572
1494	0.0328465
1506	0.0139756
1518	0.00718518
1530	0.00450061
1542	0.00442165
1554	0.00505331
1566	0.00481644
1578	0.00505331
1590	0.00386894
1602	0.00355311
1614	0.00339519
1626	0.0024477
1638	0.00331624
1650	0.00307936
1662	0.00386894
1674	0.00268457
1686	0.00276353
1698	0.00142124
1710	0.00205291
1722	0.00157916
1734	0.00197395
1746	0.00102645
1758	0.00126333
1770	0.00102645
1782	0.000868538
1794	0.00205291
1806	0.00252666
1818	0.00355311
1830	0.00268457
1842	0.00118437
1854	0.00165812
1866	0.00126333
1878	0.00118437
1890	0.000710622
1902	0.000552706
1914	0.000473748
1926	0.00039479
1938	0.000552706
1950	0.000552706
1962	0.000552706
1974	0.000473748
1986	0.00039479
1998	0.00039479
2010	0.000473748
2022	0.000315832
2034	0.000315832
2046	0.000473748
2058	0.00110541
2070	0.00126333
2082	0.00126333
2094	0.00126333
2106	0.00157916
2118	0.00173708
2130	0.00110541
2142	0.00102645
2154	0.00118437
2166	0.000947496
2178	0.00102645
2190	0.000473748
2202	0.00039479
2214	0.000473748
2226	0.000947496
2238	0.00134229
2250	0.00181603
2262	0.00236874
2274	0.00197395
2286	0.00221082
2298	0.0024477
2310	0.00197395
2322	0.00205291
2334	0.00252666
2346	0.00205291
2358	0.00165812
2370	0.00260561
2382	0.00252666
2394	0.00260561
2406	0.00213187
2418	0.00205291
2430	0.00276353
2442	0.00260561
2454	0.00268457
2466	0.00213187
2478	0.00213187
2490	0.00213187
2502	0.00205291
2514	0.00213187
2526	0.00157916
2538	0.00157916
2550	0.00173708
2562	0.00197395
2574	0.00197395
2586	0.0024477
2598	0.00284249
2610	0.00339519
2622	0.00347415
2634	0.00378998
2646	0.00434269
2658	0.00465852
2670	0.00481644
2682	0.00434269
2694	0.00473748
2706	0.00600081
2718	0.00710622
2730	0.00963288
2742	0.0106593
2754	0.0105014
2766	0.0106593
2778	0.0109752
2790	0.0120806
2802	0.0155547
2814	0.0195026
2826	0.0247928
2838	0.0362417
2850	0.0603239
2862	0.09775
2874	0.140308
2886	0.195421
2898	0.21824
2910	0.231347
2922	0.279195
2934	0.359812
2946	0.365812
2958	0.441138
2970	0.673512
2982	0.767314
2994	0.458983
3006	0.142914
3018	0.0372682
3030	0.0200553
3042	0.0158706
3054	0.0153968
3066	0.0158706
3078	0.0177655
3090	0.0154758
3102	0.0119227
3114	0.009396
3126	0.00797476
3138	0.00710622
3150	0.00797476
3162	0.00836955
3174	0.00979079
3186	0.0102645
3198	0.00971183
3210	0.00915913
3222	0.00813267
3234	0.00710622
3246	0.00505331
3258	0.00347415
3270	0.00221082
3282	0.00173708
3294	0.00173708
3306	0.00134229
3318	0.00205291
3330	0.00307936
3342	0.00347415
3354	0.00355311
3366	0.00252666
3378	0.00339519
3390	0.00386894
3402	0.00371103
3414	0.00363207
3426	0.00426373
3438	0.00323728
3450	0.00315832
3462	0.0030004
3474	0.00284249
3486	0.00252666
3498	0.00157916
3510	0.00197395
3522	0.0015002
3534	0.00102645
3546	0.00118437
3558	0.000710622
3570	0.0015002
3582	0.00157916
3594	0.00221082
3606	0.00260561
3618	0.011212
3630	0.0340309
3642	0.0536125
3654	0.0460325
3666	0.0226609
3678	0.00821163
3690	0.00402686
3702	0.00236874
3714	0.00276353
3726	0.00165812
3738	0.00157916
3750	0.000710622
3762	0.00157916
3774	0.00118437
3786	0.00110541
3798	0.00284249
3810	0.00307936
3822	0.00315832
3834	0.00505331
3846	0.00434269
3858	0.00410582
3870	0.00339519
3882	0.00268457
3894	0.00252666
3906	0.00268457
3918	0.00213187
3930	0.00252666
3942	0.00189499
3954	0.00307936
3966	0.00371103
