Infrared Spectrum: 2-Butyn-1-ol
Formula: C 4 H 6 O
CAS: 764-01-2
State: gas
Instrument: HP-GC/MS/IRD
Origin: NIST Mass Spectrometry Data Center
1/CM	ABSORBANCE
550	0.000672
562	0.0004788
574	0.0002576
586	0.0001008
598	1.96e-05
610	0.00014
622	0.0002156
634	0.000588
646	0.000546
658	0.000476
670	0.0001204
682	0.0001904
694	0.0003612
706	0.0005628
718	0.0006524
730	0.000714
742	0.0008596
754	0.001106
766	0.0012628
778	0.0010864
790	0.0008288
802	0.0005292
814	0.0003332
826	0.0002772
838	0.0003108
850	0.0003388
862	0.000448
874	0.0006608
886	0.0008148
898	0.0009576
910	0.0011228
922	0.0014252
934	0.0021056
946	0.003346
958	0.0056392
970	0.009296
982	0.0149912
994	0.023324
1006	0.028
1018	0.0252868
1030	0.016044
1042	0.0086324
1054	0.0052976
1066	0.0029988
1078	0.002002
1090	0.0016996
1102	0.0019068
1114	0.003038
1126	0.006118
1138	0.0080276
1150	0.0074704
1162	0.0032844
1174	0.0019152
1186	0.0017052
1198	0.0017948
1210	0.002072
1222	0.002422
1234	0.0026432
1246	0.0028476
1258	0.0031052
1270	0.0033544
1282	0.0033488
1294	0.0031556
1306	0.002954
1318	0.00322
1330	0.0040544
1342	0.0050764
1354	0.0074004
1366	0.0110684
1378	0.0143164
1390	0.0149408
1402	0.0121884
1414	0.0078708
1426	0.0046368
1438	0.0029092
1450	0.002366
1462	0.0024332
1474	0.001862
1486	0.001568
1498	0.0015176
1510	0.0013944
1522	0.001162
1534	0.001036
1546	0.0008932
1558	0.0007308
1570	0.000616
1582	0.000504
1594	0.0003696
1606	0.0002912
1618	0.000294
1630	0.0001848
1642	0.0001456
1654	0.0001624
1666	0.0001064
1678	0.000126
1690	0.0001708
1702	0.000126
1714	7.84e-05
1726	3.92e-05
1738	3.92e-05
1750	1.4e-05
1762	1.12e-05
1774	2.52e-05
1786	2.8e-05
1798	1.68e-05
1810	2.52e-05
1822	3.08e-05
1834	8.4e-06
1846	2.24e-05
1858	3.36e-05
1870	2.8e-05
1882	2.24e-05
1894	2.52e-05
1906	5.88e-05
1918	7.28e-05
1930	9.8e-05
1942	0.0001344
1954	0.0001624
1966	0.000224
1978	0.000294
1990	0.000392
2002	0.0004396
2014	0.0004396
2026	0.0003528
2038	0.0002996
2050	0.00028
2062	0.0002296
2074	0.0001316
2086	6.44e-05
2098	3.08e-05
2110	4.76e-05
2122	6.16e-05
2134	6.16e-05
2146	6.72e-05
2158	0.0001092
2170	0.0002184
2182	0.000434
2194	0.000826
2206	0.001484
2218	0.0021476
2230	0.0021784
2242	0.0014812
2254	0.0006552
2266	0.0007308
2278	0.0010724
2290	0.0014728
2302	0.001512
2314	0.0010164
2326	0.0003332
2338	0.0001736
2350	0.0001708
2362	0.0001904
2374	0.0001904
2386	0.0002016
2398	0.0001848
2410	0.0001512
2422	0.0001372
2434	0.0001568
2446	0.0001456
2458	0.0001176
2470	0.0001428
2482	0.0001512
2494	0.0001092
2506	0.0001288
2518	0.0001428
2530	0.0001316
2542	0.000112
2554	6.16e-05
2566	5.04e-05
2578	1.96e-05
2590	5.88e-05
2602	8.4e-05
2614	8.4e-05
2626	8.4e-05
2638	8.4e-05
2650	9.52e-05
2662	0.000126
2674	0.00014
2686	0.0001848
2698	0.0002184
2710	0.0002912
2722	0.0004032
2734	0.00056
2746	0.0007588
2758	0.0008232
2770	0.0007
2782	0.000686
2794	0.0007308
2806	0.0008988
2818	0.0012376
2830	0.0018312
2842	0.0028
2854	0.0043484
2866	0.0066052
2878	0.008358
2890	0.0085876
2902	0.0084504
2914	0.009114
2926	0.0128716
2938	0.0126112
2950	0.0111356
2962	0.0062972
2974	0.004452
2986	0.0033236
2998	0.0023464
3010	0.002268
3022	0.00161
3034	0.001302
3046	0.0011172
3058	0.000868
3070	0.0007756
3082	0.0005376
3094	0.0004536
3106	0.0003612
3118	0.0002912
3130	0.0001904
3142	0.000168
3154	0.0001428
3166	6.44e-05
3178	7e-05
3190	7.84e-05
3202	5.88e-05
3214	5.04e-05
3226	3.08e-05
3238	4.2e-05
3250	9.52e-05
3262	0.0001036
3274	7.84e-05
3286	8.96e-05
3298	0.000182
3310	0.0001176
3322	0.0001792
3334	0.0002184
3346	0.0001708
3358	0.000154
3370	0.0001288
3382	0.0001792
3394	0.0001568
3406	0.0002492
3418	0.0002464
3430	0.0002912
3442	0.0002632
3454	0.0002912
3466	0.0002884
3478	0.0002912
3490	0.0003332
3502	0.0003108
3514	0.0003724
3526	0.0004788
3538	0.0004312
3550	0.0004284
3562	0.0003416
3574	0.0003668
3586	0.0004424
3598	0.0007308
3610	0.0011088
3622	0.0016996
3634	0.002548
3646	0.0036624
3658	0.003738
3670	0.0041944
3682	0.0030772
3694	0.0020188
3706	0.00126
3718	0.0006888
3730	0.0004928
3742	0.000336
3754	0.000364
3766	0.0004004
3778	0.0004872
3790	0.0004116
3802	0.000462
3814	0.0003892
3826	0.0003276
3838	0.000322
