Infrared Spectrum: Cyclopropylmethanol
Formula: C 4 H 8 O
CAS: 2516-33-8
State: gas
Instrument: HP-GC/MS/IRD
Origin: NIST Mass Spectrometry Data Center
1/CM	ABSORBANCE
550	0.0005148
562	0.0004212
574	0.000338
586	0.0002002
598	0.0001326
610	0.0001014
622	3.12e-05
634	8.32e-05
646	0.0001092
658	2.86e-05
670	8.32e-05
682	0.0001274
694	9.1e-05
706	0.0001066
718	0.0001612
730	0.0002886
742	0.0004472
754	0.0006864
766	0.0009126
778	0.0010322
790	0.0011518
802	0.0014534
814	0.0018772
826	0.0016562
838	0.0017316
850	0.0014066
862	0.0010634
874	0.0010166
886	0.0013676
898	0.0016666
910	0.0021372
922	0.0023088
934	0.0026026
946	0.0026702
958	0.0029926
970	0.0040352
982	0.0058968
994	0.0090636
1006	0.0138008
1018	0.0219076
1030	0.026
1042	0.023257
1054	0.015158
1066	0.0047944
1078	0.0021554
1090	0.0016692
1102	0.0017056
1114	0.001846
1126	0.0020904
1138	0.0022854
1150	0.002366
1162	0.0023712
1174	0.0023244
1186	0.0024336
1198	0.002613
1210	0.0029172
1222	0.0028496
1234	0.0027404
1246	0.0024752
1258	0.0022516
1270	0.0020436
1282	0.0018876
1294	0.0017368
1306	0.0015522
1318	0.0015002
1330	0.001833
1342	0.0024336
1354	0.0028288
1366	0.003055
1378	0.0034944
1390	0.0043836
1402	0.0048282
1414	0.0043602
1426	0.0031434
1438	0.002041
1450	0.001599
1462	0.0012584
1474	0.0011206
1486	0.0008372
1498	0.0005876
1510	0.0004004
1522	0.0002496
1534	0.0001924
1546	0.0001326
1558	0.0001144
1570	0.0001118
1582	0.000143
1594	0.0001066
1606	7.54e-05
1618	7.8e-05
1630	0.000104
1642	5.98e-05
1654	3.38e-05
1666	4.94e-05
1678	5.2e-05
1690	4.42e-05
1702	1.82e-05
1714	3.38e-05
1726	6.24e-05
1738	4.68e-05
1750	6.76e-05
1762	9.1e-05
1774	0.0001274
1786	0.0002002
1798	0.0002106
1810	0.0001872
1822	0.0001612
1834	0.0001742
1846	0.000182
1858	0.000195
1870	0.0001872
1882	0.000195
1894	0.0001976
1906	0.0002782
1918	0.0003042
1930	0.0003406
1942	0.0002912
1954	0.0002288
1966	0.0001924
1978	0.0001612
1990	0.0001482
2002	0.000169
2014	0.0002132
2026	0.0002678
2038	0.0003484
2050	0.0004134
2062	0.0004628
2074	0.000429
2086	0.0003354
2098	0.0002496
2110	0.0002002
2122	0.0001456
2134	0.0001118
2146	0.000104
2158	5.72e-05
2170	7.8e-05
2182	7.8e-05
2194	9.88e-05
2206	8.58e-05
2218	8.84e-05
2230	4.68e-05
2242	5.98e-05
2254	5.46e-05
2266	4.16e-05
2278	3.12e-05
2290	7.8e-06
2302	3.38e-05
2314	2.08e-05
2326	2.08e-05
2338	5.2e-06
2350	2.08e-05
2362	1.56e-05
2374	5.72e-05
2386	6.76e-05
2398	7.54e-05
2410	7.02e-05
2422	7.54e-05
2434	9.1e-05
2446	8.32e-05
2458	0.0001066
2470	0.000143
2482	9.62e-05
2494	0.0001092
2506	9.36e-05
2518	7.8e-05
2530	6.5e-05
2542	4.16e-05
2554	7.02e-05
2566	5.98e-05
2578	8.58e-05
2590	8.06e-05
2602	0.0001196
2614	0.0001118
2626	0.0001092
2638	9.62e-05
2650	0.0001482
2662	0.0001716
2674	0.0002106
2686	0.0002444
2698	0.000299
2710	0.0003328
2722	0.0003874
2734	0.000481
2746	0.0005434
2758	0.0006578
2770	0.0007436
2782	0.0008658
2794	0.001066
2806	0.0012896
2818	0.0016172
2830	0.0022126
2842	0.0032084
2854	0.004654
2866	0.0064454
2878	0.0077766
2890	0.0080626
2902	0.007956
2914	0.0075166
2926	0.0068536
2938	0.0060944
2950	0.0051064
2962	0.004082
2974	0.0036946
2986	0.004186
2998	0.005837
3010	0.0072826
3022	0.0077012
3034	0.0059774
3046	0.003796
3058	0.0028964
3070	0.0036686
3082	0.0046072
3094	0.004563
3106	0.0032838
3118	0.0015106
3130	0.0005772
3142	0.0002158
3154	0.000117
3166	5.72e-05
3178	4.16e-05
3190	5.72e-05
3202	4.94e-05
3214	2.6e-05
3226	4.16e-05
3238	7.28e-05
3250	8.32e-05
3262	0.0001092
3274	4.16e-05
3286	5.72e-05
3298	2.6e-05
3310	8.58e-05
3322	5.98e-05
3334	6.76e-05
3346	8.06e-05
3358	7.28e-05
3370	7.28e-05
3382	0.00013
3394	0.0001586
3406	0.0001508
3418	0.0001872
3430	0.000221
3442	0.0001872
3454	0.0002262
3466	0.000169
3478	0.0002106
3490	0.0002236
3502	0.0002314
3514	0.0001768
3526	0.0001976
3538	0.0001352
3550	0.0001638
3562	0.0001742
3574	0.0002522
3586	0.000195
3598	0.000312
3610	0.0004394
3622	0.0007852
3634	0.0014326
3646	0.0021346
3658	0.0027586
3670	0.0027118
3682	0.0020488
3694	0.001131
3706	0.0005564
3718	0.0003432
3730	0.0002834
3742	0.000234
3754	0.0002366
3766	0.000273
3778	0.000299
3790	0.000247
3802	0.0002756
3814	0.0002938
3826	0.0003042
3838	0.0003796
