Infrared Spectrum: CYCLOPROPANEMETHANOL
Formula: C4 H8 O
CAS: 2516-33-8
State: SOLUTION (10% IN CCl4 FOR 3800-1300, 10% IN CS2 FOR 1300-620, 10% IN CCl4 FOR 620-250 CM^-^1) VERSUS SOLVENT
Class: COBLENTZ III
Instrument: PERKIN-ELMER 521 (GRATING)
Instrument parameters: FILTERS AT 3150, 2500, 2000, 1150, 700, 410; GRATING CHANGES AT 2000, 630 CM^-^1
Sampling: TRANSMISSION
Path length: 0.011, 0.011, AND 0.010 CM (CsBr CELL)
Resolution: 4
Origin: DOW CORNING CORP.
1/CM	TRANSMITTANCE
248.17	0.524
258.001	0.533
267.831	0.552
277.662	0.558
287.493	0.566
297.324	0.593
307.154	0.62
316.985	0.631
326.816	0.64
336.646	0.645
346.477	0.649
356.308	0.641
366.139	0.643
375.969	0.671
385.8	0.688
395.631	0.689
405.461	0.685
415.292	0.681
425.123	0.677
434.954	0.665
444.784	0.656
454.615	0.64
464.446	0.612
474.276	0.528
484.107	0.501
493.938	0.558
503.769	0.592
513.599	0.596
523.43	0.586
533.261	0.578
543.091	0.568
552.922	0.556
562.753	0.534
572.584	0.536
582.414	0.53
592.245	0.525
602.076	0.52
611.906	0.517
621.737	0.517
631.568	0.522
641.399	0.532
651.229	0.542
661.06	0.557
670.891	0.564
680.721	0.581
690.552	0.59
700.383	0.61
710.214	0.624
720.044	0.637
729.875	0.659
739.706	0.673
749.537	0.68
759.367	0.667
769.198	0.565
779.029	0.689
788.859	0.653
798.69	0.483
808.521	0.675
818.352	0.628
828.182	0.272
838.013	0.668
847.844	0.684
857.674	0.78
867.505	0.799
877.336	0.79
887.167	0.728
896.997	0.487
906.828	0.684
916.659	0.517
926.489	0.528
936.32	0.732
946.151	0.704
955.982	0.537
965.812	0.624
975.643	0.493
985.474	0.371
995.304	0.171
1005.14	0.032
1014.97	0.013
1024.8	0
1034.63	0.002
1044.46	0.088
1054.29	0.391
1064.12	0.633
1073.95	0.74
1083.78	0.754
1093.61	0.717
1103.44	0.724
1113.27	0.676
1123.1	0.647
1132.93	0.685
1142.77	0.592
1152.6	0.558
1162.43	0.612
1172.26	0.693
1182.09	0.683
1191.92	0.625
1201.75	0.695
1211.58	0.681
1221.41	0.628
1231.24	0.597
1241.07	0.533
1250.9	0.522
1260.73	0.622
1270.56	0.645
1280.4	0.628
1290.23	0.6
1300.06	0.558
1309.89	0.545
1319.72	0.565
1329.55	0.585
1339.38	0.581
1349.21	0.541
1359.04	0.469
1368.87	0.467
1378.7	0.453
1388.53	0.399
1398.36	0.262
1408.19	0.244
1418.03	0.322
1427.86	0.311
1437.69	0.399
1447.52	0.501
1457.35	0.521
1467.18	0.479
1477.01	0.557
1486.84	0.701
1496.67	0.748
1506.5	0.776
1516.33	0.799
1526.16	0.835
1535.99	0.858
1545.82	0.866
1555.66	0.863
1565.49	0.855
1575.32	0.851
1585.15	0.839
1594.98	0.828
1604.81	0.819
1614.64	0.799
1624.47	0.791
1634.3	0.794
1644.13	0.804
1653.96	0.815
1663.79	0.82
1673.62	0.828
1683.45	0.831
1693.29	0.826
1703.12	0.84
1712.95	0.848
1722.78	0.856
1732.61	0.859
1742.44	0.86
1752.27	0.859
1762.1	0.856
1771.93	0.855
1781.76	0.847
1791.59	0.85
1801.42	0.854
1811.25	0.852
1821.08	0.854
1830.92	0.858
1840.75	0.858
1850.58	0.855
1860.41	0.856
1870.24	0.86
1880.07	0.859
1889.9	0.862
1899.73	0.852
1909.56	0.838
1919.39	0.828
1929.22	0.834
1939.05	0.844
1948.88	0.856
1958.71	0.859
1968.55	0.862
1978.38	0.866
1988.21	0.863
1998.04	0.86
2007.87	0.864
2017.7	0.863
2027.53	0.859
2037.36	0.854
2047.19	0.839
2057.02	0.8242
2066.85	0.8258
2076.68	0.8468
2086.51	0.8549
2096.34	0.8578
2106.18	0.8749
2116.01	0.8819
2125.84	0.885
2135.67	0.886
2145.5	0.883
2155.33	0.882
2165.16	0.883
2174.99	0.883
2184.82	0.8812
2194.65	0.879
2204.48	0.879
2214.31	0.879
2224.14	0.879
2233.97	0.8782
2243.81	0.878
2253.64	0.877
2263.47	0.8806
2273.3	0.8845
2283.13	0.8868
2292.96	0.8853
2302.79	0.883
2312.62	0.8813
2322.45	0.8755
2332.28	0.874
2342.11	0.8706
2351.94	0.8673
2361.77	0.8646
2371.6	0.8633
2381.44	0.8633
2391.27	0.862
2401.1	0.862
2410.93	0.8607
2420.76	0.8594
2430.59	0.859
2440.42	0.859
2450.25	0.8562
2460.08	0.8514
2469.91	0.847
2479.74	0.844
2489.57	0.847
2499.4	0.8492
2509.23	0.85
2519.07	0.848
2528.9	0.846
2538.73	0.8409
2548.56	0.8309
2558.39	0.827
2568.22	0.8235
2578.05	0.82
2587.88	0.818
2597.71	0.8155
2607.54	0.813
2617.37	0.8065
2627.2	0.8011
2637.03	0.798
2646.86	0.794
2656.7	0.787
2666.53	0.7771
2676.36	0.774
2686.19	0.771
2696.02	0.7632
2705.85	0.754
2715.68	0.7362
2725.51	0.728
2735.34	0.7262
2745.17	0.7223
2755	0.7156
2764.83	0.7019
2774.66	0.6843
2784.49	0.6633
2794.33	0.637
2804.16	0.6061
2813.99	0.5688
2823.82	0.5029
2833.65	0.4509
2843.48	0.3884
2853.31	0.3268
2863.14	0.2312
2872.97	0.1687
2882.8	0.1976
2892.63	0.2599
2902.46	0.3058
2912.29	0.2666
2922.12	0.2442
2931.96	0.2693
2941.79	0.306
2951.62	0.2918
2961.45	0.3275
2971.28	0.5041
2981.11	0.5381
2990.94	0.4839
3000.77	0.3047
3010.6	0.1209
3020.43	0.161
3030.26	0.3276
3040.09	0.5349
3049.92	0.5825
3059.75	0.573
3069.59	0.491
3079.42	0.3468
3089.25	0.2023
3099.08	0.4386
3108.91	0.5492
3118.74	0.5601
3128.57	0.5568
3138.4	0.5376
3148.23	0.5097
3158.06	0.4789
3167.89	0.443
3177.72	0.4259
3187.55	0.3869
3197.38	0.35
3207.22	0.31
3217.05	0.2841
3226.88	0.2401
3236.71	0.2124
3246.54	0.1792
3256.37	0.1553
3266.2	0.1244
3276.03	0.1041
3285.86	0.0862
3295.69	0.0761
3305.52	0.0622
3315.35	0.0571
3325.18	0.05
3335.01	0.0462
3344.85	0.046
3354.68	0.0477
3364.51	0.0517
3374.34	0.0557
3384.17	0.06
3394	0.0653
3403.83	0.0738
3413.66	0.0844
3423.49	0.0956
3433.32	0.1044
3443.15	0.12
3452.98	0.1401
3462.81	0.1591
3472.64	0.1831
3482.48	0.2116
3492.31	0.2392
3502.14	0.282
3511.97	0.3161
3521.8	0.371
3531.63	0.4227
3541.46	0.481
3551.29	0.533
3561.12	0.5748
3570.95	0.6291
3580.78	0.6547
3590.61	0.6767
3600.44	0.6663
3610.27	0.6031
3620.11	0.5313
3629.94	0.5762
3639.77	0.6427
3649.6	0.7515
3659.43	0.8017
3669.26	0.8048
3679.09	0.7944
3688.92	0.8304
3698.75	0.8631
3708.58	0.8746
3718.41	0.8826
3728.24	0.886
3738.07	0.889
3747.9	0.89
3757.74	0.889
3767.57	0.887
3777.4	0.886
3787.23	0.885
