Infrared Spectrum: 3-IODOPROPENE
Formula: C3 H5 I
CAS: 556-56-9
State: LIQUID
Class: COBLENTZ
Instrument: Not specified, most likely a prism, grating, or hybrid spectrometer.
Sampling: TRANSMISSION
Path length: 0.003 CM
Resolution: 4
Origin: WYANDOTTE CHEMICALS CORP., WYANDOTTE, MICHIGAN, USA
MICROMETERS	TRANSMITTANCE
2.027	0.96
2.06782	0.957
2.10864	0.952
2.14945	0.925
2.19027	0.909
2.23109	0.92
2.27191	0.918
2.31272	0.911
2.35354	0.921
2.39436	0.921
2.43518	0.923
2.47599	0.923
2.51681	0.928
2.55763	0.925
2.59845	0.921
2.63926	0.931
2.68008	0.925
2.7209	0.925
2.76172	0.911
2.80253	0.903
2.84335	0.894
2.88417	0.889
2.92499	0.886
2.9658	0.884
3.00662	0.882
3.04744	0.882
3.08826	0.877
3.12907	0.869
3.16989	0.855
3.21071	0.801
3.25153	0.559
3.29234	0.702
3.33316	0.62
3.37398	0.637
3.4148	0.729
3.45561	0.746
3.49643	0.688
3.53725	0.756
3.57807	0.828
3.61889	0.855
3.6597	0.865
3.70052	0.869
3.74134	0.875
3.78216	0.882
3.82297	0.879
3.86379	0.872
3.90461	0.877
3.94543	0.882
3.98624	0.882
4.02706	0.886
4.06788	0.874
4.1087	0.88
4.14951	0.875
4.19033	0.875
4.23115	0.877
4.27197	0.884
4.31278	0.884
4.3536	0.882
4.39442	0.848
4.43524	0.84
4.47605	0.869
4.51687	0.863
4.55769	0.87
4.59851	0.867
4.63932	0.869
4.68014	0.87
4.72096	0.879
4.76178	0.872
4.80259	0.869
4.84341	0.874
4.88423	0.869
4.92505	0.875
4.96587	0.874
5.00668	0.867
5.0475	0.867
5.08832	0.858
5.12914	0.84
5.16995	0.84
5.21077	0.853
5.25159	0.848
5.29241	0.845
5.33322	0.835
5.37404	0.79
5.41486	0.717
5.45568	0.688
5.49649	0.751
5.53731	0.819
5.57813	0.838
5.61895	0.85
5.65976	0.85
5.70058	0.848
5.7414	0.797
5.78222	0.772
5.82303	0.806
5.86385	0.797
5.90467	0.789
5.94549	0.816
5.9863	0.801
6.02712	0.765
6.06794	0.67
6.10876	0.46
6.14957	0.772
6.19039	0.784
6.23121	0.792
6.27203	0.814
6.31284	0.821
6.35366	0.824
6.39448	0.821
6.4353	0.824
6.47612	0.823
6.51693	0.816
6.55775	0.816
6.59857	0.819
6.63939	0.806
6.6802	0.795
6.72102	0.773
6.76184	0.734
6.80266	0.697
6.84347	0.668
6.88429	0.583
6.92511	0.346
6.96593	0.435
7.00674	0.559
7.04756	0.557
7.08838	0.443
7.1292	0.38
7.17001	0.613
7.21083	0.67
7.25165	0.702
7.29247	0.736
7.33328	0.734
7.3741	0.726
7.41492	0.722
7.45574	0.739
7.49655	0.763
7.53737	0.765
7.57819	0.758
7.61901	0.758
7.65982	0.748
7.70064	0.7
7.74146	0.651
7.78228	0.724
7.82309	0.736
7.86391	0.729
7.90473	0.729
7.94555	0.736
7.98637	0.731
8.02718	0.734
8.068	0.739
8.10882	0.739
8.14964	0.731
8.19045	0.704
8.23127	0.654
8.27209	0.617
8.31291	0.603
8.35372	0.583
8.39454	0.435
8.43536	0.35
8.47618	0.464
8.51699	0.413
8.55781	0.311
8.59863	0.18
8.63945	0.073
8.68026	0.032
8.72108	0.057
8.7619	0.28
8.80272	0.442
8.84353	0.513
8.88435	0.544
8.92517	0.552
8.96599	0.557
9.0068	0.578
9.04762	0.588
9.08844	0.576
9.12926	0.556
9.17007	0.544
9.21089	0.549
9.25171	0.561
9.29253	0.562
9.33334	0.561
9.37416	0.566
9.41498	0.564
9.4558	0.547
9.49662	0.513
9.53743	0.505
9.57825	0.574
9.61907	0.625
9.65989	0.649
9.7007	0.656
9.74152	0.653
9.78234	0.644
9.82316	0.622
9.86397	0.613
9.90479	0.602
9.94561	0.588
9.98643	0.549
10.0272	0.476
10.0681	0.375
10.1089	0.227
10.1497	0.112
10.1905	0.112
10.2313	0.267
10.2721	0.397
10.313	0.477
10.3538	0.52
10.3946	0.554
10.4354	0.566
10.4762	0.566
10.5171	0.556
10.5579	0.537
10.5987	0.498
10.6395	0.438
10.6803	0.336
10.7211	0.227
10.762	0.125
10.8028	0.068
10.8436	0.039
10.8844	0.03
10.9252	0.032
10.966	0.054
11.0069	0.141
11.0477	0.272
11.0885	0.403
11.1293	0.51
11.1701	0.578
11.211	0.622
11.2518	0.656
11.2926	0.68
11.3334	0.7
11.3742	0.71
11.415	0.719
11.4559	0.727
11.4967	0.731
11.5375	0.739
11.5783	0.739
11.6191	0.744
11.6599	0.75
11.7008	0.751
11.7416	0.751
11.7824	0.753
11.8232	0.75
11.864	0.746
11.9049	0.734
11.9457	0.727
11.9865	0.712
12.0273	0.678
12.0681	0.625
12.1089	0.528
12.1498	0.447
12.1906	0.491
12.2314	0.595
12.2722	0.656
12.313	0.687
12.3538	0.702
12.3947	0.714
12.4355	0.722
12.4763	0.727
12.5171	0.731
12.5579	0.732
12.5988	0.736
12.6396	0.739
12.6804	0.741
12.7212	0.744
12.762	0.75
12.8028	0.753
12.8437	0.753
12.8845	0.755
12.9253	0.756
12.9661	0.761
13.0069	0.761
13.0477	0.763
13.0886	0.763
13.1294	0.765
13.1702	0.765
13.211	0.763
13.2518	0.765
13.2926	0.765
13.3335	0.765
13.3743	0.765
13.4151	0.763
13.4559	0.761
13.4967	0.763
13.5376	0.765
13.5784	0.765
13.6192	0.761
13.66	0.76
13.7008	0.761
13.7416	0.756
13.7825	0.751
13.8233	0.751
13.8641	0.748
13.9049	0.739
13.9457	0.739
13.9865	0.732
14.0274	0.729
14.0682	0.719
14.109	0.719
14.1498	0.712
14.1906	0.705
14.2315	0.7
14.2723	0.695
14.3131	0.683
14.3539	0.678
14.3947	0.671
14.4355	0.661
14.4764	0.654
14.5172	0.644
14.558	0.63
14.5988	0.61
14.6396	0.585
14.6804	0.552
14.7213	0.517
14.7621	0.476
14.8029	0.431
14.8437	0.379
14.8845	0.329
14.9254	0.295
14.9662	0.277
15.007	0.295
15.0478	0.338
15.0886	0.357
15.1294	0.341
15.1703	0.331
15.2111	0.377
15.2519	0.421
15.2927	0.474
15.3335	0.522
15.3743	0.556
15.4152	0.591
15.456	0.615
15.4968	0.637
15.5376	0.651
15.5784	0.658
15.6193	0.675
15.6601	0.68
15.7009	0.683
15.7417	0.688
15.7825	0.692
15.8233	0.688
15.8642	0.693
15.905	0.695
15.9458	0.695
