Infrared Spectrum: PROPENE, 3-IODO-
Formula: C3 H5 I
CAS: 556-56-9
State: SOLUTION (10% IN CCl4 FOR 3800-1333 AND 10% IN CS2 FOR 1333-400 CM^-^1)
Class: COBLENTZ III
Instrument: DOW KBr FOREPRISM-GRATING
Instrument parameters: BLAZED AT 3.5, 12.0, 20.0 MICRON, CHANGED AT 5.0, 7.5, 14.9 MICRON
Sampling: TRANSMISSION
Path length: 0.011, 0.011 CM
Resolution: 4
Origin: DOW CHEMICAL COMPANY
1/CM	TRANSMITTANCE
379.989	0.247
388.689	0.254
397.39	0.307
406.09	0.531
414.791	0.726
423.491	0.791
432.191	0.823
440.892	0.836
449.592	0.85
458.292	0.851
466.993	0.857
475.693	0.847
484.394	0.81
493.094	0.795
501.794	0.855
510.495	0.884
519.195	0.892
527.896	0.889
536.596	0.889
545.296	0.904
553.997	0.911
562.697	0.919
571.397	0.931
580.098	0.937
588.798	0.937
597.499	0.936
606.199	0.941
614.899	0.933
623.6	0.926
632.3	0.911
641.001	0.87
649.701	0.798
658.401	0.669
667.102	0.39
675.802	0.749
684.502	0.889
693.203	0.921
701.903	0.931
710.604	0.942
719.304	0.955
728.004	0.959
736.705	0.959
745.405	0.961
754.106	0.967
762.806	0.968
771.506	0.964
780.207	0.961
788.907	0.956
797.607	0.955
806.308	0.946
815.008	0.927
823.709	0.834
832.409	0.918
841.109	0.895
849.81	0.819
858.51	0.802
867.211	0.832
875.911	0.862
884.611	0.887
893.312	0.893
902.012	0.843
910.712	0.574
919.413	0.19
928.113	0.655
936.814	0.823
945.514	0.895
954.214	0.906
962.915	0.88
971.615	0.787
980.316	0.491
989.016	0.835
997.716	0.915
1006.42	0.945
1015.12	0.952
1023.82	0.956
1032.52	0.946
1041.22	0.914
1049.92	0.904
1058.62	0.938
1067.32	0.956
1076.02	0.961
1084.72	0.959
1093.42	0.959
1102.12	0.964
1110.82	0.957
1119.52	0.944
1128.22	0.915
1136.92	0.831
1145.62	0.364
1154.32	0.414
1163.02	0.765
1171.72	0.855
1180.42	0.872
1189.12	0.848
1197.83	0.929
1206.53	0.938
1215.23	0.96
1223.93	0.968
1232.63	0.97
1241.33	0.972
1250.03	0.968
1258.73	0.968
1267.43	0.959
1276.13	0.956
1284.83	0.938
1293.53	0.914
1302.23	0.941
1310.93	0.948
1319.63	0.951
1328.33	0.951
1337.03	0.936
1345.73	0.914
1354.43	0.88
1363.13	0.863
1371.83	0.872
1380.53	0.881
1389.23	0.882
1397.93	0.847
1406.63	0.695
1415.33	0.862
1424.04	0.874
1432.74	0.836
1441.44	0.707
1450.14	0.899
1458.84	0.917
1467.54	0.927
1476.24	0.922
1484.94	0.908
1493.64	0.88
1502.34	0.842
1511.04	0.78
1519.74	0.727
1528.44	0.684
1537.14	0.604
1545.84	0.51
1554.54	0.514
1563.24	0.608
1571.94	0.676
1580.64	0.687
1589.34	0.702
1598.04	0.782
1606.74	0.853
1615.44	0.885
1624.14	0.876
1632.84	0.725
1641.54	0.896
1650.25	0.915
1658.95	0.945
1667.65	0.949
1676.35	0.956
1685.05	0.961
1693.75	0.957
1702.45	0.963
1711.15	0.97
1719.85	0.975
1728.55	0.978
1737.25	0.985
1745.95	0.986
1754.65	0.986
1763.35	0.987
1772.05	0.987
1780.75	0.987
1789.45	0.986
1798.15	0.983
1806.85	0.978
1815.55	0.976
1824.25	0.961
1832.95	0.934
1841.65	0.889
1850.35	0.923
1859.05	0.956
1867.75	0.965
1876.46	0.972
1885.16	0.98
1893.86	0.98
1902.56	0.985
1911.26	0.987
1919.96	0.987
1928.66	0.989
1937.36	0.986
1946.06	0.989
1954.76	0.994
1963.46	0.998
1972.16	1.001
1980.86	1.002
1989.56	1.002
1998.26	1.004
2006.96	1.004
2015.66	1.004
2024.36	1.004
2033.06	1.004
2041.76	1.004
2050.46	1.005
2059.16	1.004
2067.86	1.001
2076.56	1.004
2085.26	1.005
2093.96	1.004
2102.67	1.006
2111.37	1.005
2120.07	1.0021
2128.77	1.001
2137.47	1.001
2146.17	1
2154.87	0.997
2163.57	0.995
2172.27	0.993
2180.97	0.993
2189.67	0.987
2198.37	0.987
2207.07	0.986
2215.77	0.99
2224.47	0.987
2233.17	0.987
2241.87	0.986
2250.57	0.9851
2259.27	0.979
2267.97	0.9751
2276.67	0.971
2285.37	0.9611
2294.07	0.9523
2302.77	0.9458
2311.47	0.9559
2320.17	0.959
2328.88	0.957
2337.58	0.955
2346.28	0.9599
2354.98	0.9679
2363.68	0.9652
2372.38	0.9668
2381.08	0.9709
2389.78	0.975
2398.48	0.9722
2407.18	0.971
2415.88	0.974
2424.58	0.97
2433.28	0.97
2441.98	0.9682
2450.68	0.965
2459.38	0.9668
2468.08	0.965
2476.78	0.964
2485.48	0.9649
2494.18	0.9668
2502.88	0.967
2511.58	0.965
2520.28	0.965
2528.98	0.964
2537.68	0.963
2546.38	0.9591
2555.09	0.96
2563.79	0.9574
2572.49	0.9591
2581.19	0.956
2589.89	0.949
2598.59	0.9559
2607.29	0.9573
2615.99	0.9562
2624.69	0.955
2633.39	0.9568
2642.09	0.957
2650.79	0.959
2659.49	0.9568
2668.19	0.957
2676.89	0.9568
2685.59	0.9552
2694.29	0.955
2702.99	0.955
2711.69	0.955
2720.39	0.952
2729.09	0.952
2737.79	0.952
2746.49	0.951
2755.19	0.9512
2763.89	0.951
2772.59	0.949
2781.3	0.949
2790	0.9482
2798.7	0.951
2807.4	0.948
2816.1	0.945
2824.8	0.9402
2833.5	0.934
2842.2	0.9298
2850.9	0.9338
2859.6	0.9226
2868.3	0.9206
2877	0.9324
2885.7	0.9408
2894.4	0.9384
2903.1	0.94
2911.8	0.936
2920.5	0.9412
2929.2	0.9345
2937.9	0.9275
2946.6	0.9157
2955.3	0.904
2964	0.8623
2972.7	0.841
2981.4	0.8549
2990.1	0.8463
2998.8	0.8983
3007.51	0.9045
3016.21	0.885
3024.91	0.9005
3033.61	0.9215
3042.31	0.9215
3051.01	0.9011
3059.71	0.9104
3068.41	0.9085
3077.11	0.8719
3085.81	0.8379
3094.51	0.786
3103.21	0.8697
3111.91	0.9311
3120.61	0.9475
3129.31	0.953
3138.01	0.956
3146.71	0.957
3155.41	0.957
3164.11	0.959
3172.81	0.957
3181.51	0.957
3190.21	0.957
3198.91	0.955
3207.61	0.955
3216.31	0.952
3225.01	0.952
3233.72	0.953
3242.42	0.9517
3251.12	0.953
3259.82	0.955
3268.52	0.955
3277.22	0.953
3285.92	0.953
3294.62	0.953
3303.32	0.9523
3312.02	0.952
3320.72	0.951
3329.42	0.949
3338.12	0.949
3346.82	0.949
3355.52	0.9487
3364.22	0.952
3372.92	0.951
3381.62	0.9527
3390.32	0.955
3399.02	0.956
3407.72	0.956
3416.42	0.956
3425.12	0.9549
3433.82	0.957
3442.52	0.9537
3451.22	0.9556
3459.93	0.956
3468.63	0.9556
3477.33	0.957
3486.03	0.956
3494.73	0.9596
3503.43	0.961
3512.13	0.9623
3520.83	0.964
3529.53	0.965
3538.23	0.97
3546.93	0.968
3555.63	0.9692
3564.33	0.972
3573.03	0.9705
3581.73	0.9746
3590.43	0.9662
3599.13	0.9746
3607.83	0.9786
3616.53	0.9762
3625.23	0.9796
3633.93	0.9796
3642.63	0.9888
3651.33	0.9838
3660.03	0.9882
3668.73	0.994
3677.43	0.987
3686.14	1.0004
3694.84	0.9976
3703.54	0.9993
3712.24	0.9974
3720.94	1.0014
3729.64	1.0004
3738.34	1.0011
3747.04	0.9953
3755.74	0.998
3764.44	1.006
3773.14	1.006
3781.84	1.009
3790.54	1.0069
