Infrared Spectrum: Cyclobutanol
Formula: C 4 H 8 O
CAS: 2919-23-5
State: gas
Origin: EPA-IR VAPOR PHASE LIBRARY
1/CM	ABSORBANCE
549.8	0.0021257
559.445	0.0022757
569.09	0.0018257
578.734	0.0027557
588.379	0.0031657
598.024	0.0028057
607.669	0.0033657
617.313	0.0037357
626.958	0.0027157
636.603	0.0023757
646.248	0.0020557
655.893	0.0016357
665.537	0.0016657
675.182	0.0017157
684.827	0.0015257
694.472	0.0016957
704.116	0.0018157
713.761	0.0017857
723.406	0.0019657
733.051	0.0023157
742.695	0.0028757
752.34	0.0030857
761.985	0.0027257
771.63	0.0026057
781.275	0.0023657
790.919	0.0024357
800.564	0.0022557
810.209	0.0020357
819.854	0.0020357
829.498	0.0016557
839.143	0.0021557
848.788	0.0021157
858.433	0.0024557
868.078	0.0028957
877.722	0.0036057
887.367	0.0038557
897.012	0.0051657
906.657	0.0066457
916.301	0.0089457
925.946	0.0107857
935.591	0.0139357
945.236	0.0157657
954.88	0.0138357
964.525	0.0118357
974.17	0.0099557
983.815	0.0068057
993.46	0.0061457
1003.1	0.0080957
1012.75	0.0106657
1022.39	0.0139257
1032.04	0.0173457
1041.68	0.0220357
1051.33	0.0293857
1060.97	0.0378157
1070.62	0.0483557
1080.26	0.0548957
1089.91	0.0622057
1099.55	0.0677157
1109.2	0.0672257
1118.84	0.0634657
1128.49	0.0563057
1138.13	0.0406757
1147.78	0.0270557
1157.42	0.0171557
1167.07	0.0132657
1176.71	0.0120857
1186.36	0.0130057
1196	0.0138557
1205.64	0.0156857
1215.29	0.0220557
1224.93	0.0285057
1234.58	0.0300057
1244.22	0.0292657
1253.87	0.0279657
1263.51	0.0219957
1273.16	0.0182257
1282.8	0.0173657
1292.45	0.0168857
1302.09	0.0152557
1311.74	0.0137157
1321.38	0.0125057
1331.03	0.0115957
1340.67	0.0117257
1350.32	0.0132257
1359.96	0.0151757
1369.61	0.0180557
1379.25	0.0203557
1388.9	0.0194857
1398.54	0.0171157
1408.18	0.0149757
1417.83	0.0114957
1427.47	0.0092157
1437.12	0.0080057
1446.76	0.0097657
1456.41	0.0089357
1466.05	0.0081357
1475.7	0.0062857
1485.34	0.0048857
1494.99	0.0027957
1504.63	0.0018757
1514.28	0.0014857
1523.92	0.0013757
1533.57	0.0011157
1543.21	0.0011157
1552.86	0.0011057
1562.5	0.0011657
1572.15	0.001008
1581.79	0.0009595
1591.44	0.0009741
1601.08	0.0008402
1610.73	0.0007248
1620.37	0.0008305
1630.01	0.000707
1639.66	0.0006583
1649.3	0.000657
1658.95	0.0007299
1668.59	0.0008073
1678.24	0.000899
1687.88	0.0009685
1697.53	0.0009932
1707.17	0.0010857
1716.82	0.0011357
1726.46	0.0011057
1736.11	0.001013
1745.75	0.0008772
1755.4	0.0008226
1765.04	0.0007017
1774.69	0.0005436
1784.33	0.0005547
1793.98	0.0006177
1803.62	0.0006908
1813.27	0.0008697
1822.91	0.0010957
1832.55	0.0011857
1842.2	0.0012757
1851.84	0.0012857
1861.49	0.0010418
1871.13	0.0010262
1880.78	0.0009061
1890.42	0.0008649
1900.07	0.0007463
1909.71	0.0007772
1919.36	0.0007196
1929	0.0007559
1938.65	0.0006531
1948.29	0.0006378
1957.94	0.0006668
1967.58	0.0005918
1977.23	0.0006296
1986.87	0.0006382
1996.52	0.0006756
2006.16	0.0006482
2015.81	0.0006393
2025.45	0.0007699
2035.1	0.0008604
2044.74	0.0009566
2054.38	0.0010209
2064.03	0.0011857
2073.67	0.0010356
2083.32	0.0010616
2092.96	0.0010857
2102.61	0.0009589
2112.25	0.0011657
2121.9	0.0013057
2131.54	0.0013957
2141.19	0.0014657
2150.83	0.0013857
2160.48	0.0013057
2170.12	0.0013357
2179.77	0.0013457
2189.41	0.0013757
2199.06	0.0015157
2208.7	0.0013957
2218.35	0.0014057
2227.99	0.0011557
2237.64	0.0009826
2247.28	0.0008988
2256.92	0.0006805
2266.57	0.0006067
2276.21	0.0005848
2285.86	0.0005727
2295.5	0.0006422
2305.15	0.0005899
2314.79	0.0006071
2324.44	0.0005783
2334.08	0.0007196
2343.73	0.0006891
2353.37	0.0006973
2363.02	0.000804
2372.66	0.0007223
2382.31	0.000772
2391.95	0.0007976
2401.6	0.0006794
2411.24	0.0006701
2420.89	0.0006332
2430.53	0.0006491
2440.18	0.0006431
2449.82	0.0006879
2459.47	0.0007214
2469.11	0.0007269
2478.75	0.000616
2488.4	0.0006253
2498.04	0.0006284
2507.69	0.0005649
2517.33	0.0005654
2526.98	0.000525
2536.62	0.0006807
2546.27	0.0006592
2555.91	0.0006059
2565.56	0.0006995
2575.2	0.0006788
2584.85	0.0006173
2594.49	0.0006962
2604.14	0.0005624
2613.78	0.0006457
2623.43	0.0006311
2633.07	0.0007753
2642.72	0.0008023
2652.36	0.0008544
2662.01	0.000956
2671.65	0.0010757
2681.29	0.0013157
2690.94	0.0012557
2700.58	0.0013957
2710.23	0.0013657
2719.87	0.0014157
2729.52	0.0014057
2739.16	0.0015357
2748.81	0.0013457
2758.45	0.0015757
2768.1	0.0015957
2777.74	0.0016257
2787.39	0.0017157
2797.03	0.0017857
2806.68	0.0022857
2816.32	0.0030357
2825.97	0.0044557
2835.61	0.0066757
2845.26	0.0101457
2854.9	0.0153957
2864.55	0.0219257
2874.19	0.0274257
2883.84	0.0344157
2893.48	0.0386157
2903.12	0.0458057
2912.77	0.0484557
2922.41	0.0533957
2932.06	0.0611957
2941.7	0.0696357
2951.35	0.0828557
2960.99	0.100896
2970.64	0.106706
2980.28	0.101666
2989.93	0.126926
2999.57	0.0690057
3009.22	0.0466757
3018.86	0.0295957
3028.51	0.0146357
3038.15	0.0064157
3047.8	0.0037557
3057.44	0.0030157
3067.09	0.0026257
3076.73	0.0023157
3086.38	0.0020457
3096.02	0.0016757
3105.67	0.0013857
3115.31	0.0011957
3124.95	0.0011457
3134.6	0.0008363
3144.24	0.0009426
3153.89	0.0008864
3163.53	0.000649
3173.18	0.0005392
3182.82	0.0002568
3192.47	0.0003746
3202.11	0.000254
3211.76	5.22e-05
3221.4	0.0002213
3231.05	0.0002432
3240.69	0
3250.34	0.00016814
3259.98	0.000245
3269.63	7.8391e-05
3279.27	0.00016851
3288.92	0.00022
3298.56	0.0003218
3308.21	0.0004399
3317.85	1.31e-05
3327.49	0.0004917
3337.14	0.0005445
3346.78	0.0003359
3356.43	0.0004341
3366.07	0.0005811
3375.72	0.000489
3385.36	0.0005806
3395.01	0.0006031
3404.65	0.0008377
3414.3	0.0009204
3423.94	0.0011057
3433.59	0.0010026
3443.23	0.001032
3452.88	0.0009352
3462.52	0.0008884
3472.17	0.0009951
3481.81	0.0010342
3491.46	0.0012257
3501.1	0.0010518
3510.75	0.0007824
3520.39	0.0009134
3530.04	0.0007176
3539.68	0.0004962
3549.32	0.0006057
3558.97	0.0009328
3568.61	0.0009432
3578.26	0.0011957
3587.9	0.0010618
3597.55	0.0015757
3607.19	0.0021257
3616.84	0.0031857
3626.48	0.0058257
3636.13	0.0103257
3645.77	0.0145257
3655.42	0.0155857
3665.06	0.0140757
3674.71	0.0110457
3684.35	0.0059057
3694	0.0026557
3703.64	0.0013757
3713.29	0.0011957
3722.93	0.0010672
3732.58	0.0009889
3742.22	0.0008519
3751.86	0.0010374
3761.51	0.0008866
3771.15	0.0006986
3780.8	0.0010028
3790.44	0.0010643
3800.09	0.0010857
3809.73	0.0010304
3819.38	0.0010957
3829.02	0.0013957
3838.67	0.0012757
3848.31	0.0016057
3857.96	0.0012357
3867.6	0.0011757
3877.25	0.0010575
3886.89	0.0012257
3896.54	0.0009113
3906.18	0.0008007
3915.83	0.0009447
3925.47	0.0007612
3935.12	0.0004887
3944.76	0.0004428
3954.41	0.0005708
3964.05	0.0003211
3973.69	0.0003584
3983.34	0.000576
3992.98	0.0003671
