Infrared Spectrum: 1,2-DIIODO ETHANE
Formula: C2 H4 I2
CAS: 624-73-7
State: SOLUTION (10% CCl4 FOR 5000-1330, 10% CS2 FOR 1330-625 CM^-^1)
Class: COBLENTZ
Instrument: Not specified, most likely a prism, grating, or hybrid spectrometer.
Sampling: TRANSMISSION
Path length: 0.0122 CM, 0.0105 CM
Resolution: 4
Origin: DOW CHEMICAL COMPANY
MICROMETERS	TRANSMITTANCE
2.027	0.901
2.06804	0.901
2.10908	0.896
2.15011	0.896
2.19115	0.892
2.23219	0.887
2.27323	0.896
2.31426	0.891
2.3553	0.892
2.39634	0.899
2.43738	0.897
2.47842	0.896
2.51945	0.896
2.56049	0.894
2.60153	0.892
2.64257	0.894
2.6836	0.897
2.72464	0.901
2.76568	0.897
2.80672	0.897
2.84775	0.903
2.88879	0.903
2.92983	0.913
2.97087	0.911
3.01191	0.908
3.05294	0.906
3.09398	0.901
3.13502	0.896
3.17606	0.896
3.21709	0.892
3.25813	0.886
3.29917	0.882
3.34021	0.889
3.38125	0.891
3.42228	0.892
3.46332	0.892
3.50436	0.892
3.5454	0.894
3.58643	0.894
3.62747	0.894
3.66851	0.892
3.70955	0.891
3.75059	0.892
3.79162	0.891
3.83266	0.892
3.8737	0.889
3.91474	0.891
3.95577	0.894
3.99681	0.892
4.03785	0.891
4.07889	0.891
4.11993	0.889
4.16096	0.889
4.202	0.891
4.24304	0.889
4.28408	0.882
4.32511	0.879
4.36615	0.886
4.40719	0.889
4.44823	0.884
4.48926	0.889
4.5303	0.892
4.57134	0.892
4.61238	0.889
4.65342	0.887
4.69445	0.889
4.73549	0.891
4.77653	0.891
4.81757	0.892
4.8586	0.892
4.89964	0.887
4.94068	0.889
4.98172	0.889
5.02276	0.892
5.06379	0.887
5.10483	0.887
5.14587	0.887
5.18691	0.887
5.22794	0.886
5.26898	0.886
5.31002	0.886
5.35106	0.884
5.3921	0.884
5.43313	0.882
5.47417	0.882
5.51521	0.884
5.55625	0.886
5.59728	0.886
5.63832	0.884
5.67936	0.886
5.7204	0.889
5.76143	0.886
5.80247	0.886
5.84351	0.882
5.88455	0.879
5.92559	0.879
5.96662	0.884
6.00766	0.889
6.0487	0.891
6.08974	0.889
6.13077	0.882
6.17181	0.879
6.21285	0.87
6.25389	0.86
6.29493	0.845
6.33596	0.835
6.377	0.831
6.41804	0.814
6.45908	0.804
6.50011	0.806
6.54115	0.814
6.58219	0.819
6.62323	0.84
6.66427	0.862
6.7053	0.87
6.74634	0.877
6.78738	0.874
6.82842	0.872
6.86945	0.867
6.91049	0.84
6.95153	0.746
6.99257	0.678
7.03361	0.797
7.07464	0.857
7.11568	0.87
7.15672	0.874
7.19776	0.877
7.23879	0.875
7.27983	0.872
7.32087	0.872
7.36191	0.874
7.40294	0.879
7.44398	0.88
7.48502	0.88
7.52606	0.879
7.5671	0.877
7.60813	0.882
7.64917	0.884
7.69021	0.88
7.73125	0.879
7.77228	0.879
7.81332	0.877
7.85436	0.875
7.8954	0.87
7.93644	0.877
7.97747	0.872
8.01851	0.858
8.05955	0.841
8.10059	0.848
8.14162	0.872
8.18266	0.874
8.2237	0.869
8.26474	0.818
8.30578	0.724
8.34681	0.722
8.38785	0.824
8.42889	0.85
8.46993	0.862
8.51096	0.863
8.552	0.857
8.59304	0.816
8.63408	0.809
8.67512	0.814
8.71615	0.744
8.75719	0.547
8.79823	0.215
8.83927	0.239
8.8803	0.698
8.92134	0.818
8.96238	0.848
9.00342	0.867
9.04445	0.874
9.08549	0.875
9.12653	0.874
9.16757	0.87
9.20861	0.867
9.24964	0.867
9.29068	0.875
9.33172	0.872
9.37276	0.87
9.41379	0.872
9.45483	0.867
9.49587	0.852
9.53691	0.845
9.57795	0.86
9.61898	0.875
9.66002	0.88
9.70106	0.887
9.7421	0.896
9.78313	0.899
9.82417	0.897
9.86521	0.897
9.90625	0.899
9.94729	0.899
9.98832	0.901
10.0294	0.901
10.0704	0.904
10.1114	0.908
10.1525	0.908
10.1935	0.909
10.2345	0.909
10.2756	0.906
10.3166	0.908
10.3577	0.906
10.3987	0.906
10.4397	0.906
10.4808	0.906
10.5218	0.909
10.5629	0.911
10.6039	0.909
10.6449	0.911
10.686	0.911
10.727	0.909
10.768	0.909
10.8091	0.911
10.8501	0.909
10.8912	0.909
10.9322	0.909
10.9732	0.909
11.0143	0.909
11.0553	0.911
11.0963	0.911
11.1374	0.911
11.1784	0.909
11.2195	0.911
11.2605	0.909
11.3015	0.908
11.3426	0.899
11.3836	0.892
11.4246	0.889
11.4657	0.887
11.5067	0.886
11.5478	0.879
11.5888	0.875
11.6298	0.877
11.6709	0.875
11.7119	0.874
11.7529	0.877
11.794	0.879
11.835	0.889
11.8761	0.897
11.9171	0.899
11.9581	0.906
11.9992	0.906
12.0402	0.909
12.0812	0.906
12.1223	0.906
12.1633	0.906
12.2044	0.906
12.2454	0.909
12.2864	0.913
12.3275	0.913
12.3685	0.913
12.4095	0.911
12.4506	0.909
12.4916	0.908
12.5327	0.908
12.5737	0.904
12.6147	0.901
12.6558	0.899
12.6968	0.894
12.7379	0.879
12.7789	0.867
12.8199	0.865
12.861	0.879
12.902	0.884
12.943	0.894
12.9841	0.896
13.0251	0.896
13.0662	0.894
13.1072	0.896
13.1482	0.896
13.1893	0.891
13.2303	0.887
13.2713	0.886
13.3124	0.882
13.3534	0.88
13.3945	0.88
13.4355	0.879
13.4765	0.875
13.5176	0.865
13.5586	0.858
13.5996	0.845
13.6407	0.826
13.6817	0.811
13.7228	0.795
13.7638	0.777
13.8048	0.773
13.8459	0.778
13.8869	0.801
13.9279	0.816
13.969	0.826
14.01	0.831
14.0511	0.845
14.0921	0.857
14.1331	0.865
14.1742	0.867
14.2152	0.87
14.2562	0.877
14.2973	0.879
14.3383	0.884
14.3794	0.879
14.4204	0.88
14.4614	0.882
14.5025	0.884
14.5435	0.886
14.5846	0.882
14.6256	0.882
14.6666	0.88
14.7077	0.88
14.7487	0.879
14.7897	0.879
14.8308	0.877
14.8718	0.877
14.9129	0.879
14.9539	0.877
14.9949	0.877
15.036	0.874
15.077	0.869
15.118	0.862
15.1591	0.858
15.2001	0.862
15.2412	0.858
15.2822	0.857
15.3232	0.857
15.3643	0.857
15.4053	0.852
15.4463	0.848
15.4874	0.846
15.5284	0.846
15.5695	0.846
15.6105	0.845
15.6515	0.843
15.6926	0.841
15.7336	0.841
15.7746	0.84
15.8157	0.845
15.8567	0.848
