Infrared Spectrum: 1,2-DIIODOETHANE
Formula: C2 H4 I2
CAS: 624-73-7
State: SOLID (MINERAL OIL MULL)
Class: COBLENTZ
Instrument: Not specified, most likely a prism, grating, or hybrid spectrometer.
Sampling: TRANSMISSION
Resolution: 4
Origin: WYANDOTTE CHEMICALS CORP., WYANDOTTE, MICHIGAN, USA
MICROMETERS	TRANSMITTANCE
2.027	0.181
2.06778	0.18
2.10855	0.175
2.14933	0.171
2.19011	0.171
2.23088	0.168
2.27166	0.161
2.31244	0.161
2.35321	0.159
2.39399	0.163
2.43477	0.163
2.47554	0.163
2.51632	0.161
2.5571	0.159
2.59787	0.159
2.63865	0.159
2.67943	0.163
2.7202	0.161
2.76098	0.158
2.80176	0.154
2.84253	0.154
2.88331	0.158
2.92409	0.151
2.96486	0.146
3.00564	0.142
3.04642	0.142
3.08719	0.141
3.12797	0.134
3.16875	0.136
3.20952	0.134
3.2503	0.125
3.29108	0.113
3.33185	0.076
3.37263	0.028
3.41341	0.023
3.45418	0.028
3.49496	0.034
3.53574	0.064
3.57651	0.153
3.61729	0.163
3.65807	0.161
3.69884	0.163
3.73962	0.163
3.7804	0.164
3.82117	0.168
3.86195	0.17
3.90273	0.176
3.9435	0.18
3.98428	0.181
4.02506	0.183
4.06583	0.188
4.10661	0.193
4.14739	0.195
4.18816	0.198
4.22894	0.198
4.26972	0.197
4.31049	0.202
4.35127	0.204
4.39205	0.207
4.43282	0.21
4.4736	0.212
4.51438	0.214
4.55515	0.217
4.59593	0.222
4.63671	0.226
4.67748	0.232
4.71826	0.243
4.75904	0.244
4.79981	0.25
4.84059	0.255
4.88137	0.256
4.92214	0.261
4.96292	0.275
5.0037	0.277
5.04447	0.277
5.08525	0.278
5.12603	0.29
5.1668	0.292
5.20758	0.295
5.24836	0.307
5.28913	0.312
5.32991	0.312
5.37069	0.323
5.41146	0.326
5.45224	0.329
5.49302	0.34
5.53379	0.346
5.57457	0.35
5.61535	0.357
5.65612	0.36
5.6969	0.362
5.73768	0.367
5.77845	0.374
5.81923	0.372
5.86001	0.382
5.90078	0.387
5.94156	0.392
5.98234	0.399
6.02311	0.408
6.06389	0.414
6.10467	0.416
6.14544	0.423
6.18622	0.426
6.227	0.428
6.26777	0.435
6.30855	0.437
6.34933	0.44
6.3901	0.454
6.43088	0.442
6.47166	0.455
6.51243	0.45
6.55321	0.452
6.59399	0.445
6.63476	0.435
6.67554	0.403
6.71632	0.353
6.75709	0.214
6.79787	0.17
6.83865	0.239
6.87942	0.35
6.9202	0.448
6.96098	0.557
7.00175	0.413
7.04253	0.399
7.08331	0.459
7.12408	0.476
7.16486	0.457
7.20564	0.35
7.24641	0.319
7.28719	0.448
7.32797	0.518
7.36874	0.528
7.40952	0.54
7.4503	0.554
7.49107	0.578
7.53185	0.579
7.57263	0.581
7.6134	0.586
7.65418	0.593
7.69496	0.602
7.73573	0.61
7.77651	0.617
7.81729	0.62
7.85806	0.63
7.89884	0.634
7.93962	0.647
7.98039	0.651
8.02117	0.656
8.06195	0.664
8.10272	0.675
8.1435	0.688
8.18428	0.692
8.22505	0.7
8.26583	0.707
8.30661	0.721
8.34738	0.748
8.38816	0.775
8.42894	0.795
8.46971	0.811
8.51049	0.833
8.55127	0.87
8.59204	0.911
8.63282	0.965
8.6736	0.886
8.71437	0.494
8.75515	0.151
8.79593	0.149
8.8367	0.282
8.87748	0.384
8.91826	0.459
8.95903	0.515
8.99981	0.547
9.04059	0.566
9.08136	0.583
9.12214	0.59
9.16292	0.6
9.20369	0.605
9.24447	0.605
9.28525	0.605
9.32602	0.605
9.3668	0.588
9.40758	0.574
9.44835	0.602
9.48913	0.62
9.52991	0.641
9.57068	0.656
9.61146	0.67
9.65224	0.671
9.69301	0.675
9.73379	0.69
9.77457	0.7
9.81534	0.709
9.85612	0.712
9.8969	0.722
9.93767	0.732
9.97845	0.738
10.0192	0.75
10.06	0.755
10.1008	0.763
10.1416	0.765
10.1823	0.768
10.2231	0.765
10.2639	0.77
10.3047	0.773
10.3454	0.777
10.3862	0.787
10.427	0.79
10.4678	0.794
10.5085	0.799
10.5493	0.801
10.5901	0.802
10.6309	0.804
10.6717	0.812
10.7124	0.812
10.7532	0.816
10.794	0.816
10.8348	0.821
10.8755	0.826
10.9163	0.828
10.9571	0.836
10.9979	0.843
11.0386	0.841
11.0794	0.843
11.1202	0.846
11.161	0.852
11.2017	0.855
11.2425	0.855
11.2833	0.869
11.3241	0.87
11.3649	0.874
11.4056	0.875
11.4464	0.875
11.4872	0.875
11.528	0.88
11.5687	0.882
11.6095	0.884
11.6503	0.882
11.6911	0.886
11.7318	0.891
11.7726	0.889
11.8134	0.891
11.8542	0.892
11.895	0.896
11.9357	0.899
11.9765	0.909
12.0173	0.911
12.0581	0.911
12.0988	0.914
12.1396	0.914
12.1804	0.916
12.2212	0.914
12.2619	0.925
12.3027	0.925
12.3435	0.923
12.3843	0.925
12.425	0.926
12.4658	0.93
12.5066	0.928
12.5474	0.928
12.5882	0.928
12.6289	0.926
12.6697	0.923
12.7105	0.923
12.7513	0.921
12.792	0.923
12.8328	0.923
12.8736	0.923
12.9144	0.923
12.9551	0.925
12.9959	0.928
13.0367	0.93
13.0775	0.931
13.1183	0.935
13.159	0.935
13.1998	0.938
13.2406	0.937
13.2814	0.935
13.3221	0.935
13.3629	0.933
13.4037	0.923
13.4445	0.918
13.4852	0.903
13.526	0.886
13.5668	0.87
13.6076	0.843
13.6483	0.823
13.6891	0.789
13.7299	0.753
13.7707	0.739
13.8115	0.729
13.8522	0.741
13.893	0.77
13.9338	0.814
13.9746	0.836
14.0153	0.858
14.0561	0.87
14.0969	0.886
14.1377	0.896
14.1784	0.899
14.2192	0.901
14.26	0.903
14.3008	0.901
14.3416	0.904
14.3823	0.903
14.4231	0.899
14.4639	0.894
14.5047	0.886
14.5454	0.88
14.5862	0.875
14.627	0.872
14.6678	0.862
14.7085	0.846
14.7493	0.836
14.7901	0.829
14.8309	0.826
14.8716	0.816
14.9124	0.804
14.9532	0.753
14.994	0.698
15.0348	0.668
15.0755	0.722
15.1163	0.755
15.1571	0.753
15.1979	0.726
15.2386	0.702
15.2794	0.683
15.3202	0.659
15.361	0.642
15.4017	0.619
15.4425	0.603
15.4833	0.588
15.5241	0.574
15.5649	0.568
15.6056	0.547
15.6464	0.522
15.6872	0.503
15.728	0.493
15.7687	0.471
15.8095	0.44
15.8503	0.428
15.8911	0.413
15.9318	0.392
15.9726	0.38
