Infrared Spectrum: ETHANE, 1,2-DIIODO-
Formula: C2 H4 I2
CAS: 624-73-7
State: SOLUTION (10% IN CCl4 FOR 3800-1340, AND 10% IN CS2 FOR 1340-450 CM^-^1)
Class: COBLENTZ III
Instrument: DOW KBr FOREPRISM-GRATING
Instrument parameters: BLAZED AT 3.5, 12.0, 20.0 MICRON, CHANGED AT 5.0, 7.5, 14.9 MICRON
Sampling: TRANSMISSION
Path length: 0.011, 0.011 CM
Resolution: 4
Origin: DOW CHEMICAL COMPANY
1/CM	TRANSMITTANCE
450.435	0.919
459.131	0.923
467.826	0.931
476.522	0.938
485.218	0.94
493.913	0.923
502.609	0.805
511.305	0.389
520	0.923
528.696	0.96
537.391	0.971
546.087	0.979
554.783	0.989
563.478	0.991
572.174	0.995
580.87	0.98
589.565	0.994
598.261	1
606.957	1
615.652	0.993
624.348	0.993
633.044	0.982
641.739	0.959
650.435	0.94
659.131	0.934
667.826	0.97
676.522	0.963
685.217	0.965
693.913	0.963
702.609	0.959
711.304	0.942
720	0.912
728.696	0.911
737.391	0.957
746.087	0.972
754.783	0.979
763.478	0.985
772.174	0.98
780.87	0.95
789.565	0.976
798.261	0.98
806.956	0.976
815.652	0.982
824.348	0.974
833.043	0.957
841.739	0.896
850.435	0.811
859.13	0.814
867.826	0.852
876.522	0.885
885.217	0.935
893.913	0.971
902.609	0.986
911.304	0.99
920	0.995
928.696	1.001
937.391	1.001
946.087	1.004
954.782	1.004
963.478	1.002
972.174	1.005
980.869	1.004
989.565	1.004
998.261	1.001
1006.96	0.997
1015.65	0.994
1024.35	0.991
1033.04	0.986
1041.74	0.972
1050.43	0.953
1059.13	0.978
1067.83	0.979
1076.52	0.974
1085.22	0.975
1093.91	0.98
1102.61	0.983
1111.3	0.979
1120	0.955
1128.7	0.839
1137.39	0.2872
1146.09	0.915
1154.78	0.967
1163.48	0.975
1172.17	0.987
1180.87	0.972
1189.56	0.974
1198.26	0.889
1206.96	0.971
1215.65	0.997
1224.35	1
1233.04	0.99
1241.74	0.965
1250.43	0.972
1259.13	0.976
1267.83	0.975
1276.52	0.98
1285.22	0.98
1293.91	0.974
1302.61	0.975
1311.3	0.975
1320	0.978
1328.7	0.974
1337.39	0.968
1346.09	0.974
1354.78	0.979
1363.48	0.98
1372.17	0.965
1380.87	0.959
1389.56	0.957
1398.26	0.956
1406.96	0.946
1415.65	0.918
1424.35	0.884
1433.04	0.7021
1441.74	0.916
1450.43	0.935
1459.13	0.94
1467.83	0.937
1476.52	0.926
1485.22	0.907
1493.91	0.873
1502.61	0.824
1511.3	0.762
1520	0.709
1528.7	0.663
1537.39	0.583
1546.09	0.479
1554.78	0.465
1563.48	0.542
1572.17	0.626
1580.87	0.652
1589.56	0.69
1598.26	0.782
1606.96	0.866
1615.65	0.914
1624.35	0.935
1633.04	0.949
1641.74	0.956
1650.43	0.96
1659.13	0.964
1667.83	0.959
1676.52	0.963
1685.22	0.964
1693.91	0.959
1702.61	0.957
1711.3	0.961
1720	0.965
1728.69	0.965
1737.39	0.964
1746.09	0.961
1754.78	0.961
1763.48	0.96
1772.17	0.963
1780.87	0.963
1789.56	0.96
1798.26	0.96
1806.96	0.959
1815.65	0.957
1824.35	0.957
1833.04	0.955
1841.74	0.953
1850.43	0.95
1859.13	0.95
1867.83	0.956
1876.52	0.956
1885.22	0.955
1893.91	0.959
1902.61	0.956
1911.3	0.956
1920	0.957
1928.69	0.959
1937.39	0.956
1946.09	0.957
1954.78	0.957
1963.48	0.956
1972.17	0.957
1980.87	0.956
1989.56	0.955
1998.26	0.948
2006.96	0.957
2015.65	0.972
2024.35	0.974
2033.04	0.9779
2041.74	0.979
2050.43	0.978
2059.13	0.976
2067.83	0.975
2076.52	0.975
2085.22	0.9759
2093.91	0.9779
2102.61	0.9799
2111.3	0.9799
2120	0.976
2128.69	0.979
2137.39	0.978
2146.09	0.9741
2154.78	0.971
2163.48	0.9758
2172.17	0.9762
2180.87	0.975
2189.56	0.978
2198.26	0.976
2206.96	0.974
2215.65	0.9759
2224.35	0.979
2233.04	0.972
2241.74	0.971
2250.43	0.965
2259.13	0.964
2267.83	0.96
2276.52	0.957
2285.22	0.95
2293.91	0.949
2302.61	0.945
2311.3	0.9488
2320	0.9525
2328.69	0.9526
2337.39	0.9544
2346.09	0.972
2354.78	0.9718
2363.48	0.979
2372.17	0.979
2380.87	0.9757
2389.56	0.97
2398.26	0.9733
2406.96	0.98
2415.65	0.9782
2424.35	0.976
2433.04	0.9788
2441.74	0.9823
2450.43	0.98
2459.13	0.98
2467.82	0.98
2476.52	0.979
2485.22	0.9797
2493.91	0.9814
2502.61	0.982
2511.3	0.98
2520	0.98
2528.69	0.979
2537.39	0.979
2546.09	0.979
2554.78	0.979
2563.48	0.978
2572.17	0.976
2580.87	0.978
2589.56	0.978
2598.26	0.976
2606.96	0.976
2615.65	0.9787
2624.35	0.9731
2633.04	0.9706
2641.74	0.978
2650.43	0.978
2659.13	0.979
2667.82	0.979
2676.52	0.9768
2685.22	0.9769
2693.91	0.979
2702.61	0.975
2711.3	0.976
2720	0.975
2728.69	0.9756
2737.39	0.9768
2746.09	0.975
2754.78	0.9732
2763.48	0.972
2772.17	0.975
2780.87	0.978
2789.56	0.975
2798.26	0.9771
2806.96	0.9745
2815.65	0.972
2824.35	0.972
2833.04	0.972
2841.74	0.9645
2850.43	0.9565
2859.13	0.958
2867.82	0.965
2876.52	0.968
2885.22	0.9675
2893.91	0.9645
2902.61	0.963
2911.3	0.9605
2920	0.957
2928.69	0.957
2937.39	0.957
2946.09	0.957
2954.78	0.956
2963.48	0.9555
2972.17	0.9485
2980.87	0.9469
2989.56	0.9564
2998.26	0.963
3006.95	0.963
3015.65	0.9581
3024.35	0.9556
3033.04	0.9566
3041.74	0.9486
3050.43	0.9507
3059.13	0.956
3067.82	0.961
3076.52	0.9576
3085.22	0.955
3093.91	0.964
3102.61	0.965
3111.3	0.965
3120	0.965
3128.69	0.968
3137.39	0.9704
3146.09	0.971
3154.78	0.972
3163.48	0.9717
3172.17	0.9713
3180.87	0.9747
3189.56	0.9757
3198.26	0.972
3206.95	0.9717
3215.65	0.9743
3224.35	0.978
3233.04	0.978
3241.74	0.978
3250.43	0.976
3259.13	0.972
3267.82	0.978
3276.52	0.9783
3285.22	0.978
3293.91	0.978
3302.61	0.978
3311.3	0.9772
3320	0.9753
3328.69	0.979
3337.39	0.976
3346.09	0.972
3354.78	0.978
3363.48	0.979
3372.17	0.9788
3380.87	0.9759
3389.56	0.9742
3398.26	0.975
3406.95	0.978
3415.65	0.9776
3424.35	0.9782
3433.04	0.978
3441.74	0.9774
3450.43	0.9756
3459.13	0.976
3467.82	0.976
3476.52	0.976
3485.22	0.9758
3493.91	0.9737
3502.61	0.97
3511.3	0.9723
3520	0.9765
3528.69	0.978
3537.39	0.9803
3546.08	0.9817
3554.78	0.9777
3563.48	0.9789
3572.17	0.9694
3580.87	0.978
3589.56	0.976
3598.26	0.9635
3606.95	0.9762
3615.65	0.976
3624.35	0.975
3633.04	0.9791
3641.74	0.9789
3650.43	0.9741
3659.13	0.979
3667.82	0.979
3676.52	0.982
3685.22	0.974
3693.91	0.98
3702.61	0.9789
3711.3	0.979
3720	0.985
3728.69	0.9801
3737.39	0.987
3746.08	0.985
3754.78	0.979
3763.48	0.9801
3772.17	0.98
3780.87	0.979
3789.56	0.986
