Infrared Spectrum: Methylisobutylamine
Formula: C 5 H 13 N
CAS: 625-43-4
State: gas
Origin: EPA-IR VAPOR PHASE LIBRARY
1/CM	ABSORBANCE
549.8	0.00471
559.445	0.00498
569.09	0.0058
578.734	0.00635
588.379	0.00698
598.024	0.00821
607.669	0.00997
617.313	0.01196
626.958	0.01438
636.603	0.01713
646.248	0.0197
655.893	0.02283
665.537	0.02494
675.182	0.02656
684.827	0.02892
694.472	0.03185
704.116	0.03487
713.761	0.03705
723.406	0.03693
733.051	0.03369
742.695	0.02724
752.34	0.02036
761.985	0.0146
771.63	0.01059
781.275	0.00856
790.919	0.00832
800.564	0.00866
810.209	0.00924
819.854	0.00897
829.498	0.00813
839.143	0.00675
848.788	0.00589
858.433	0.00578
868.078	0.00608
877.722	0.00642
887.367	0.00681
897.012	0.00703
906.657	0.00757
916.301	0.00835
925.946	0.00934
935.591	0.01033
945.236	0.01116
954.88	0.01155
964.525	0.01099
974.17	0.01008
983.815	0.00776
993.46	0.00576
1003.1	0.00413
1012.75	0.00362
1022.39	0.0039
1032.04	0.00403
1041.68	0.00501
1051.33	0.00763
1060.97	0.01186
1070.62	0.01853
1080.26	0.02457
1089.91	0.02966
1099.55	0.03214
1109.2	0.03764
1118.84	0.04564
1128.49	0.05261
1138.13	0.05689
1147.78	0.05127
1157.42	0.04099
1167.07	0.02966
1176.71	0.01807
1186.36	0.01181
1196	0.00802
1205.64	0.00526
1215.29	0.00384
1224.93	0.00371
1234.58	0.00417
1244.22	0.00544
1253.87	0.00643
1263.51	0.00647
1273.16	0.0059
1282.8	0.00563
1292.45	0.00659
1302.09	0.00713
1311.74	0.00718
1321.38	0.00739
1331.03	0.00893
1340.67	0.01161
1350.32	0.01605
1359.96	0.02097
1369.61	0.02558
1379.25	0.03391
1388.9	0.03274
1398.54	0.0254
1408.18	0.01395
1417.83	0.01203
1427.47	0.01709
1437.12	0.02966
1446.76	0.04349
1456.41	0.05781
1466.05	0.06514
1475.7	0.05811
1485.34	0.04147
1494.99	0.02245
1504.63	0.01193
1514.28	0.00717
1523.92	0.00497
1533.57	0.00397
1543.21	0.00353
1552.86	0.0031
1562.5	0.00278
1572.15	0.00272
1581.79	0.00244
1591.44	0.00245
1601.08	0.00244
1610.73	0.00245
1620.37	0.00245
1630.01	0.00243
1639.66	0.00223
1649.3	0.0022
1658.95	0.00202
1668.59	0.00191
1678.24	0.00172
1687.88	0.00164
1697.53	0.00144
1707.17	0.00122
1716.82	0.00111
1726.46	0.0009603
1736.11	0.0009351
1745.75	0.0008845
1755.4	0.000874
1765.04	0.0009258
1774.69	0.0009447
1784.33	0.0009601
1793.98	0.00106
1803.62	0.00113
1813.27	0.00124
1822.91	0.00123
1832.55	0.00127
1842.2	0.00127
1851.84	0.00121
1861.49	0.00112
1871.13	0.0009983
1880.78	0.0008744
1890.42	0.0007832
1900.07	0.0007381
1909.71	0.0006674
1919.36	0.0006395
1929	0.0005429
1938.65	0.0004968
1948.29	0.0003801
1957.94	0.0004074
1967.58	0.0004226
1977.23	0.000456
1986.87	0.0004709
1996.52	0.00057
2006.16	0.0006032
2015.81	0.000715
2025.45	0.0007498
2035.1	0.0008099
2044.74	0.0007905
2054.38	0.0009714
2064.03	0.0009824
2073.67	0.00106
2083.32	0.0011
2092.96	0.0011
2102.61	0.0009623
2112.25	0.0008354
2121.9	0.0007366
2131.54	0.000685
2141.19	0.0006336
2150.83	0.0005612
2160.48	0.0006241
2170.12	0.000622
2179.77	0.0006629
2189.41	0.0006075
2199.06	0.0008083
2208.7	0.0007137
2218.35	0.0007686
2227.99	0.0007299
2237.64	0.0007304
2247.28	0.0007697
2256.92	0.0007048
2266.57	0.000689
2276.21	0.0007721
2285.86	0.0008136
2295.5	0.0008215
2305.15	0.0007916
2314.79	0.000792
2324.44	0.0006631
2334.08	0.0007037
2343.73	0.0009317
2353.37	0.0009224
2363.02	0.00103
2372.66	0.0009117
2382.31	0.00119
2391.95	0.00122
2401.6	0.00123
2411.24	0.00129
2420.89	0.00123
2430.53	0.00133
2440.18	0.00129
2449.82	0.00131
2459.47	0.00135
2469.11	0.00139
2478.75	0.00151
2488.4	0.00155
2498.04	0.00167
2507.69	0.00193
2517.33	0.00211
2526.98	0.00238
2536.62	0.00248
2546.27	0.0027
2555.91	0.00295
2565.56	0.00322
2575.2	0.00372
2584.85	0.00435
2594.49	0.00469
2604.14	0.00511
2613.78	0.00532
2623.43	0.00594
2633.07	0.00634
2642.72	0.00684
2652.36	0.00741
2662.01	0.00802
2671.65	0.00888
2681.29	0.01057
2690.94	0.0128
2700.58	0.01501
2710.23	0.01669
2719.87	0.01792
2729.52	0.01932
2739.16	0.0212
2748.81	0.02495
2758.45	0.03248
2768.1	0.04719
2777.74	0.07126
2787.39	0.10278
2797.03	0.12219
2806.68	0.12353
2816.32	0.10479
2825.97	0.08814
2835.61	0.08289
2845.26	0.08794
2854.9	0.09939
2864.55	0.11865
2874.19	0.14026
2883.84	0.15643
2893.48	0.16699
2903.12	0.16571
2912.77	0.16476
2922.41	0.16666
2932.06	0.17889
2941.7	0.20578
2951.35	0.24727
2960.99	0.29381
2970.64	0.25381
2980.28	0.17666
2989.93	0.0873
2999.57	0.04014
3009.22	0.02227
3018.86	0.01577
3028.51	0.01293
3038.15	0.01139
3047.8	0.01067
3057.44	0.00988
3067.09	0.00938
3076.73	0.00867
3086.38	0.00784
3096.02	0.00705
3105.67	0.00641
3115.31	0.00591
3124.95	0.00564
3134.6	0.0055
3144.24	0.00521
3153.89	0.00526
3163.53	0.00491
3173.18	0.0048
3182.82	0.00453
3192.47	0.00395
3202.11	0.00347
3211.76	0.00249
3221.4	0.00213
3231.05	0.00166
3240.69	0.00146
3250.34	0.00131
3259.98	0.00108
3269.63	0.00117
3279.27	0.00122
3288.92	0.00135
3298.56	0.0013
3308.21	0.00139
3317.85	0.00132
3327.49	0.0009342
3337.14	0.00108
3346.78	0.00129
3356.43	0.00136
3366.07	0.0011
3375.72	0.0011
3385.36	0.000981
3395.01	0.0009439
3404.65	0.000771
3414.3	0.0007834
3423.94	0.0008039
3433.59	0.000693
3443.23	0.0005428
3452.88	0.0007226
3462.52	0.0004455
3472.17	0.0005563
3481.81	0.0002929
3491.46	0.0003011
3501.1	0.000291
3510.75	0.0002883
3520.39	0.0003582
3530.04	0.0003831
3539.68	0.0002968
3549.32	0.0002032
3558.97	0.000315
3568.61	0.0002627
3578.26	0.0003242
3587.9	0.0006047
3597.55	0.0003366
3607.19	0.0002933
3616.84	0.000344
3626.48	0.0006308
3636.13	0.0002238
3645.77	0.0006268
3655.42	0.0003838
3665.06	0.0003966
3674.71	0.0002705
3684.35	0.0005599
3694	0.0003937
3703.64	0.0006039
3713.29	0.0006087
3722.93	0.0006596
3732.58	0.0004264
3742.22	0.0006127
3751.86	0.0007311
3761.51	0.0008197
3771.15	0.0009996
3780.8	0.0009817
3790.44	0.000793
3800.09	0.0008638
3809.73	0.0009029
3819.38	0.00121
3829.02	0.00108
3838.67	0.0009502
3848.31	0.00116
3857.96	0.0009881
3867.6	0.00103
3877.25	0.0009738
3886.89	0.00139
3896.54	0.00119
3906.18	0.00115
3915.83	0.00109
3925.47	0.00143
3935.12	0.00132
3944.76	0.00152
3954.41	0.00169
3964.05	0.00143
3973.69	0.00134
3983.34	0.00152
3992.98	0.00133
