Infrared Spectrum: CARBON TETRACHLORIDE
Formula: C Cl4
CAS: 56-23-5
State: SOLUTION (1% CS2)
Class: COBLENTZ
Instrument: BECKMAN IR-9 (GRATING)
Instrument parameters: ORDER CHANGES: 670, 1200, 2000 CM^-^1
Sampling: TRANSMISSION
Path length: 0.10 CM
Resolution: 2
Origin: DOW CHEMICAL COMPANY
1/CM	TRANSMITTANCE
396.249	0.782
405.041	0.77
413.834	0.735
422.626	0.716
431.419	0.673
440.211	0.526
449.004	0.344
457.796	0.328
466.589	0.343
475.381	0.275
484.174	0.274
492.966	0.488
501.759	0.706
510.551	0.806
519.344	0.842
528.136	0.725
536.929	0.62
545.721	0.803
554.514	0.871
563.306	0.867
572.099	0.835
580.891	0.889
589.684	0.944
598.476	0.957
607.269	0.919
616.061	0.808
624.854	0.504
633.646	0.376
642.439	0.844
651.231	0.857
660.024	0.792
668.816	0.714
677.609	0.674
686.401	0.536
695.194	0.351
703.986	0.196
712.779	0.051
721.571	0.001
730.364	0.001
739.156	0
747.949	0
756.741	0
765.534	0
774.326	0
783.119	0
791.911	0
800.704	0
809.496	0
818.289	0
827.081	0
835.874	0.004
844.666	0.065
853.459	0.196
862.251	0.319
871.044	0.396
879.836	0.501
888.629	0.614
897.421	0.677
906.214	0.742
915.006	0.797
923.799	0.857
932.591	0.844
941.384	0.801
950.176	0.74
958.969	0.608
967.761	0.301
976.554	0.105
985.346	0.09
994.139	0.128
1002.93	0.066
1011.72	0.063
1020.52	0.2241
1029.31	0.5491
1038.1	0.772
1046.89	0.801
1055.69	0.706
1064.48	0.573
1073.27	0.547
1082.06	0.659
1090.86	0.756
1099.65	0.742
1108.44	0.66
1117.23	0.674
1126.03	0.865
1134.82	0.951
1143.61	0.98
1152.4	0.988
1161.2	0.98
1169.99	0.952
1178.78	0.878
1187.57	0.727
1196.37	0.506
1205.16	0.293
1213.95	0.163
1222.74	0.124
1231.54	0.192
1240.33	0.191
1249.12	0.088
1257.91	0.069
1266.71	0.171
1275.5	0.4801
1284.29	0.724
1293.08	0.89
1301.88	0.947
1310.67	0.963
1319.46	0.98
1328.25	0.988
1337.05	1
1345.84	1.018
1354.63	1.023
1363.42	1.02
1372.22	1.02
1381.01	1.022
1389.8	1.012
1398.59	1.011
1407.39	0.997
1416.18	0.997
1424.97	0.988
1433.76	0.98
1442.56	0.973
1451.35	0.959
1460.14	0.934
1468.93	0.873
1477.73	0.783
1486.52	0.639
1495.31	0.455
1504.1	0.265
1512.9	0.167
1521.69	0.087
1530.48	0.048
1539.27	0.022
1548.07	0.013
1556.86	0.008
1565.65	0.011
1574.44	0.029
1583.24	0.036
1592.03	0.073
1600.82	0.189
1609.61	0.426
1618.41	0.619
1627.2	0.778
1635.99	0.872
1644.78	0.932
1653.58	0.957
1662.37	0.99
1671.16	1.002
1679.95	1.011
1688.75	1.02
1697.54	1.024
1706.33	1.027
1715.12	1.029
1723.92	1.031
1732.71	1.031
1741.5	1.033
1750.29	1.031
1759.09	1.034
1767.88	1.03
1776.67	1.029
1785.46	1.024
1794.26	1.016
1803.05	1.004
1811.84	0.99
1820.63	0.979
1829.43	0.969
1838.22	0.962
1847.01	0.957
1855.8	0.943
1864.6	0.947
1873.39	0.972
1882.18	0.991
1890.97	1
1899.77	1
1908.56	1.002
1917.35	1.009
1926.14	1.02
1934.94	1.022
1943.73	1.018
1952.52	1.011
1961.31	1.002
1970.11	0.995
1978.9	0.987
1987.69	0.979
1996.48	0.968
2005.28	0.957
2014.07	0.957
2022.86	0.965
2031.65	0.987
2040.45	0.994
2049.24	1
2058.03	1.004
2066.82	1.008
2075.62	1.022
2084.41	1.027
2093.2	1.034
2101.99	1.037
2110.79	1.041
2119.58	1.042
2128.37	1.042
2137.16	1.042
2145.96	1.042
2154.75	1.042
2163.54	1.042
2172.33	1.042
2181.13	1.041
2189.92	1.04
2198.71	1.037
2207.5	1.034
2216.3	1.029
2225.09	1.024
2233.88	1.018
2242.67	1.004
2251.47	0.9829
2260.26	0.9479
2269.05	0.9147
2277.84	0.8689
2286.64	0.8318
2295.43	0.811
2304.22	0.8151
2313.01	0.8331
2321.81	0.85
2330.6	0.8612
2339.39	0.8791
2348.18	0.896
2356.98	0.9271
2365.77	0.939
2374.56	0.9622
2383.35	0.9831
2392.15	0.9981
2400.94	1.004
2409.73	1.011
2418.52	1.019
2427.32	1.0201
2436.11	1.023
2444.9	1.0241
2453.69	1.026
2462.49	1.026
2471.28	1.026
2480.07	1.026
2488.86	1.024
2497.66	1.024
2506.45	1.024
2515.24	1.023
2524.03	1.023
2532.83	1.022
2541.62	1.023
2550.41	1.023
2559.2	1.023
2568	1.02
2576.79	1.019
2585.58	1.016
2594.37	1.0149
2603.17	1.012
2611.96	1.012
2620.75	1.011
2629.54	1.011
2638.34	1.009
2647.13	1.012
2655.92	1.011
2664.71	1.011
2673.51	1.009
2682.3	1.008
2691.09	1.008
2699.88	1.006
2708.68	1.0049
2717.47	1.004
2726.26	1.002
2735.05	1.001
2743.85	1.0019
2752.64	1
2761.43	1
2770.22	1.0011
2779.02	1.002
2787.81	1.002
2796.6	1.001
2805.39	1.002
2814.19	1.0041
2822.98	1.004
2831.77	1.004
2840.56	1.004
2849.36	1.004
2858.15	1.0041
2866.94	1.006
2875.73	1.006
2884.53	1.008
2893.32	1.005
2902.11	1.002
2910.9	0.998
2919.7	0.995
2928.49	0.994
2937.28	0.9931
2946.07	0.994
2954.87	0.9971
2963.66	1.0001
2972.45	1.001
2981.24	1.001
2990.04	1.001
2998.83	1.001
3007.62	0.998
3016.41	0.997
3025.21	0.993
3034	0.993
3042.79	0.991
3051.58	0.991
3060.38	0.99
3069.17	0.988
3077.96	0.986
3086.75	0.9842
3095.55	0.986
3104.34	0.986
3113.13	0.986
3121.92	0.986
3130.72	0.987
3139.51	0.987
3148.3	0.987
3157.09	0.987
3165.89	0.988
3174.68	0.988
3183.47	0.988
3192.26	0.988
3201.06	0.987
3209.85	0.986
3218.64	0.984
3227.43	0.983
3236.23	0.983
3245.02	0.9831
3253.81	0.983
3262.6	0.98
3271.4	0.981
3280.19	0.98
3288.98	0.979
3297.77	0.977
3306.57	0.976
3315.36	0.975
3324.15	0.975
3332.94	0.973
3341.74	0.972
3350.53	0.972
3359.32	0.97
3368.11	0.969
3376.91	0.968
3385.7	0.966
3394.49	0.965
3403.28	0.965
3412.08	0.965
3420.87	0.965
3429.66	0.965
3438.45	0.965
3447.25	0.965
3456.04	0.965
3464.83	0.965
3473.62	0.965
3482.42	0.965
3491.21	0.9662
3500	0.968
3508.79	0.969
3517.59	0.9699
3526.38	0.9691
3535.17	0.97
3543.96	0.97
3552.76	0.97
3561.55	0.97
3570.34	0.97
3579.13	0.97
3587.93	0.969
3596.72	0.969
3605.51	0.968
3614.3	0.966
3623.1	0.963
3631.89	0.965
3640.68	0.966
3649.47	0.9651
3658.27	0.966
3667.06	0.965
3675.85	0.9633
3684.64	0.9647
3693.44	0.959
3702.23	0.9549
3711.02	0.9467
3719.81	0.944
3728.61	0.9483
3737.4	0.9523
3746.19	0.9553
3754.98	0.957
3763.78	0.955
3772.57	0.955
3781.36	0.955
3790.15	0.955
