Infrared Spectrum: Carbon tetrachloride
Formula: C Cl4
CAS: 56-23-5
State: GAS (100 mmHg, N2 ADDED, TOTAL PRESSURE 600 mmHg)
Class: COBLENTZ
Instrument: DOW KBr FOREPRISM-GRATING
Instrument parameters: GRATING CHANGED AT 5.0, 7.5, 15.0 MICRON
Sampling: TRANSMISSION
Path length: 5 CM
Resolution: 2
Origin: DOW CHEMICAL COMPANY
1/CM	TRANSMITTANCE
457	0.8443
466	0.8407
475	0.8375
484	0.8426
493	0.8579
502	0.87
511	0.8746
520	0.876
529	0.8768
538	0.8776
547	0.8807
556	0.8844
565	0.8877
574	0.8896
583	0.8911
592	0.8914
601	0.891
610	0.8882
619	0.8852
628	0.8874
637	0.8956
646	0.8961
655	0.8951
664	0.8948
673	0.8932
682	0.8914
691	0.8888
700	0.8831
709	0.8718
718	0.8518
727	0.8062
736	0.7005
745	0.4756
754	0.0353
763	0.0057
772	0.003
781	0.0022
790	0.002
799	0.0019
808	0.2083
817	0.7705
826	0.8718
835	0.8896
844	0.8912
853	0.8906
862	0.8901
871	0.89
880	0.8909
889	0.8906
898	0.8899
907	0.8835
916	0.8799
925	0.8927
934	0.9016
943	0.9023
952	0.8994
961	0.8914
970	0.8847
979	0.8813
988	0.8773
997	0.8613
1006	0.8515
1015	0.8582
1024	0.8845
1033	0.8972
1042	0.8961
1051	0.8906
1060	0.8847
1069	0.882
1078	0.8867
1087	0.8914
1096	0.8918
1105	0.8908
1114	0.8924
1123	0.896
1132	0.9022
1141	0.8963
1150	0.8981
1159	0.9004
1168	0.902
1177	0.8983
1186	0.904
1195	0.8997
1204	0.8937
1213	0.8881
1222	0.8828
1231	0.8835
1240	0.8736
1249	0.8556
1258	0.8369
1267	0.8672
1276	0.8805
1285	0.8815
1294	0.8831
1303	0.8828
1312	0.8827
1321	0.8831
1330	0.8833
1339	0.8834
1348	0.886
1357	0.8917
1366	0.8843
1375	0.877
1384	0.8733
1393	0.8715
1402	0.8719
1411	0.8737
1420	0.8756
1429	0.8735
1438	0.8766
1447	0.8754
1456	0.8773
1465	0.8768
1474	0.875
1483	0.8731
1492	0.8736
1501	0.8717
1510	0.8666
1519	0.8393
1528	0.8202
1537	0.8123
1546	0.7999
1555	0.8062
1564	0.7894
1573	0.7997
1582	0.8019
1591	0.8063
1600	0.8187
1609	0.8447
1618	0.8618
1627	0.8672
1636	0.864
1645	0.8611
1654	0.8656
1663	0.8709
1672	0.87
1681	0.8761
1690	0.8753
1699	0.8749
1708	0.8758
1717	0.8775
1726	0.8774
1735	0.8758
1744	0.8737
1753	0.8722
1762	0.871
1771	0.8724
1780	0.869
1789	0.8684
1798	0.8689
1807	0.8687
1816	0.868
1825	0.867
1834	0.8662
1843	0.8654
1852	0.8644
1861	0.8634
1870	0.8681
1879	0.8638
1888	0.863
1897	0.8621
1906	0.8624
1915	0.8631
1924	0.8638
1933	0.8636
1942	0.8651
1951	0.8671
1960	0.868
1969	0.8677
1978	0.8671
1987	0.8663
1996	0.8658
2005	0.8662
2014	0.8665
2023	0.8669
2032	0.8674
2041	0.8678
2050	0.8683
2059	0.8686
2068	0.869
2077	0.8693
2086	0.8697
2095	0.8698
2104	0.87
2113	0.8701
2122	0.8704
2131	0.8709
2140	0.8716
2149	0.8721
2158	0.8728
2167	0.8733
2176	0.8737
2185	0.8741
2194	0.8746
2203	0.875
2212	0.8753
2221	0.8753
2230	0.8753
2239	0.8752
2248	0.8752
2257	0.8751
2266	0.8751
2275	0.875
2284	0.875
2293	0.8755
2302	0.8768
2311	0.8805
2320	0.885
2329	0.8881
2338	0.8898
2347	0.8899
2356	0.8893
2365	0.8861
2374	0.8806
2383	0.8747
2392	0.8723
2401	0.8722
2410	0.8722
2419	0.8721
2428	0.8721
2437	0.872
2446	0.872
2455	0.8719
2464	0.8719
2473	0.8718
2482	0.8718
2491	0.8717
2500	0.8716
2509	0.8716
2518	0.8715
2527	0.8715
2536	0.8714
2545	0.8714
2554	0.8713
2563	0.8713
2572	0.8712
2581	0.8712
2590	0.8711
2599	0.8711
2608	0.871
2617	0.871
2626	0.8709
2635	0.8709
2644	0.8708
2653	0.8708
2662	0.8707
2671	0.8707
2680	0.8706
2689	0.8705
2698	0.8705
2707	0.8704
2716	0.8704
2725	0.8703
2734	0.8703
2743	0.8702
2752	0.8702
2761	0.8701
2770	0.8701
2779	0.87
2788	0.8702
2797	0.8708
2806	0.8711
2815	0.8714
2824	0.8729
2833	0.8748
2842	0.8767
2851	0.877
2860	0.8766
2869	0.8758
2878	0.8744
2887	0.8746
2896	0.8772
2905	0.8816
2914	0.8802
2923	0.8728
2932	0.8712
2941	0.8703
2950	0.8695
2959	0.8684
2968	0.867
2977	0.8648
2986	0.8632
2995	0.862
3004	0.8612
3013	0.86
3022	0.8586
3031	0.8567
3040	0.8548
3049	0.8538
3058	0.8534
3067	0.853
3076	0.8528
3085	0.8526
3094	0.8524
3103	0.8521
3112	0.8518
3121	0.8514
3130	0.8511
3139	0.8508
3148	0.8508
3157	0.8508
3166	0.8507
3175	0.8507
3184	0.8507
3193	0.8505
3202	0.8503
3211	0.8501
3220	0.8499
3229	0.8496
3238	0.8494
3247	0.8495
3256	0.8496
3265	0.8497
3274	0.8498
3283	0.8499
3292	0.85
3301	0.8501
3310	0.8501
3319	0.8502
3328	0.8502
3337	0.8502
3346	0.8503
3355	0.8503
3364	0.8504
3373	0.8504
3382	0.8505
3391	0.8505
3400	0.8512
3409	0.8519
3418	0.8527
3427	0.8534
3436	0.8542
3445	0.8551
3454	0.856
3463	0.8568
3472	0.8574
3481	0.8579
3490	0.8589
3499	0.8598
3508	0.8608
3517	0.8617
3526	0.8625
3535	0.8631
3544	0.8636
3553	0.8641
3562	0.8643
3571	0.8645
3580	0.8647
3589	0.8649
3598	0.8645
3607	0.8639
3616	0.8622
3625	0.8642
3634	0.8666
3643	0.8621
3652	0.8629
3661	0.8663
3670	0.8633
3679	0.8595
3688	0.8639
3697	0.8649
3706	0.8665
3715	0.8676
3724	0.8684
3733	0.8686
3742	0.8682
3751	0.8663
3760	0.8647
3769	0.8657
3778	0.8675
