Infrared Spectrum: Carbon Tetrachloride
Formula: C Cl 4
CAS: 56-23-5
State: gas
Origin: Sadtler Research Labs Under US-EPA Contract
1/CM	ABSORBANCE
450	0
462	0.00241716
474	0.014503
486	0.00690618
498	0.00863273
510	0.0103593
522	0.00517964
534	0.00828742
546	0.0110499
558	0.00552494
570	0.00966865
582	0.00828742
594	0.00725149
606	0.0110499
618	0.0113952
630	0.0117405
642	0.0103593
654	0.00966865
666	0.00725149
678	0.010014
690	0.0117405
702	0.0138124
714	0.0169201
726	0.0300419
738	0.120513
750	0.420241
762	0.890552
774	1.31874
786	1.91854
798	2.50314
810	0.327353
822	0.0421277
834	0.014503
846	0.00966865
858	0.00828742
870	0.00828742
882	0.010014
894	0.0075968
906	0.00828742
918	0.00725149
930	0.00690618
942	0.0075968
954	0.00863273
966	0.0110499
978	0.0124311
990	0.0127764
1002	0.0141577
1014	0.014503
1026	0.0110499
1038	0.00725149
1050	0.0075968
1062	0.0075968
1074	0.00828742
1086	0.0075968
1098	0.00863273
1110	0.00863273
1122	0.00828742
1134	0.00690618
1146	0.00656087
1158	0.00656087
1170	0.00725149
1182	0.00725149
1194	0.00828742
1206	0.010014
1218	0.0117405
1230	0.0113952
1242	0.0124311
1254	0.0155389
1266	0.0103593
1278	0.00863273
1290	0.0075968
1302	0.00656087
1314	0.00552494
1326	0.00552494
1338	0.00587025
1350	0.00552494
1362	0.00587025
1374	0.00587025
1386	0.00552494
1398	0.00587025
1410	0.00656087
1422	0.00656087
1434	0.00656087
1446	0.00656087
1458	0.00656087
1470	0.00690618
1482	0.00690618
1494	0.00725149
1506	0.00828742
1518	0.0103593
1530	0.0127764
1542	0.0158842
1554	0.0196826
1566	0.0203732
1578	0.0172655
1590	0.0158842
1602	0.0138124
1614	0.010014
1626	0.00587025
1638	0.00517964
1650	0.00414371
1662	0.00517964
1674	0.00448902
1686	0.00517964
1698	0.00517964
1710	0.00517964
1722	0.00517964
1734	0.00517964
1746	0.00448902
1758	0.00448902
1770	0.00448902
1782	0.00448902
1794	0.00448902
1806	0.00517964
1818	0.00552494
1830	0.00448902
1842	0.00552494
1854	0.00517964
1866	0.00448902
1878	0.00517964
1890	0.00448902
1902	0.00517964
1914	0.00517964
1926	0.00448902
1938	0.00517964
1950	0.00448902
1962	0.00517964
1974	0.00448902
1986	0.00448902
1998	0.00414371
2010	0.00414371
2022	0.00448902
2034	0.00414371
2046	0.00448902
2058	0.00414371
2070	0.00414371
2082	0.00414371
2094	0.00414371
2106	0.00414371
2118	0.00448902
2130	0.0037984
2142	0.0037984
2154	0.0037984
2166	0.00414371
2178	0.0037984
2190	0.00310778
2202	0.0037984
2214	0.00310778
2226	0.00310778
2238	0.0037984
2250	0.0037984
2262	0.0037984
2274	0.00414371
2286	0.00414371
2298	0.0037984
2310	0.00310778
2322	0.0037984
2334	0.00310778
2346	0.0037984
2358	0.00310778
2370	0.00276247
2382	0.00310778
2394	0.00310778
2406	0.00276247
2418	0.00310778
2430	0.00276247
2442	0.00276247
2454	0.00276247
2466	0.00310778
2478	0.00310778
2490	0.00276247
2502	0.00276247
2514	0.00276247
2526	0.00310778
2538	0.00276247
2550	0.00310778
2562	0.00276247
2574	0.00241716
2586	0.00276247
2598	0.00241716
2610	0.00241716
2622	0.00241716
2634	0.00276247
2646	0.00310778
2658	0.0037984
2670	0.00276247
2682	0.00276247
2694	0.00310778
2706	0.00241716
2718	0.00241716
2730	0.00241716
2742	0.00241716
2754	0.00241716
2766	0.00310778
2778	0.00241716
2790	0.00276247
2802	0.00276247
2814	0.00276247
2826	0.00241716
2838	0.00276247
2850	0.00276247
2862	0.00276247
2874	0.00310778
2886	0.00310778
2898	0.00241716
2910	0.00241716
2922	0.00241716
2934	0.00276247
2946	0.00276247
2958	0.00310778
2970	0.00241716
2982	0.00276247
2994	0.00276247
3006	0.00241716
3018	0.00276247
3030	0.00276247
3042	0.00276247
3054	0.00241716
3066	0.00276247
3078	0.00241716
3090	0.00241716
3102	0.00276247
3114	0.00276247
3126	0.00241716
3138	0.00241716
3150	0.00276247
3162	0.00310778
3174	0.00310778
3186	0.00276247
3198	0.00310778
3210	0.00276247
3222	0.00310778
3234	0.00310778
3246	0.00276247
3258	0.00276247
3270	0.00276247
3282	0.00276247
3294	0.00276247
3306	0.00276247
3318	0.00276247
3330	0.00241716
3342	0.00276247
3354	0.00310778
3366	0.00310778
3378	0.00310778
3390	0.00310778
3402	0.00276247
3414	0.00276247
3426	0.00241716
3438	0.0037984
3450	0.0037984
3462	0.0037984
3474	0.00310778
3486	0.0037984
3498	0.0037984
3510	0.00310778
3522	0.00310778
3534	0.0037984
3546	0.00241716
3558	0.00310778
3570	0.00414371
3582	0.00276247
3594	0.00241716
3606	0.00310778
3618	0.00276247
3630	0.0037984
3642	0.00310778
3654	0.00276247
3666	0.00310778
3678	0.00276247
3690	0.00310778
3702	0.00276247
3714	0.00310778
3726	0.00276247
3738	0.0037984
3750	0.00241716
3762	0.00241716
3774	0.00276247
3786	0.00241716
3798	0.00310778
3810	0.00276247
3822	0.00310778
3834	0.00241716
3846	0.0037984
3858	0.00310778
3870	0.0037984
3882	0.00241716
3894	0.00414371
3906	0.00310778
3918	0.0037984
3930	0.00241716
3942	0.00241716
3954	0.00276247
3966	0.00276247
