Infrared Spectrum: CARBON TETRACHLORIDE
Formula: C Cl4
CAS: 56-23-5
State: GAS (ABOUT 100 mmHg DILUTED WITH NITROGEN)
Class: COBLENTZ
Instrument: DOW KBr FOREPRISM
Instrument parameters: GRATING BLAZED AT 3.5, 12.0, 20.0 MICRONS AND CHANGED AT 5.0, 7.5, 14.9 MICRONS
Sampling: TRANSMISSION
Path length: 5 CM
Resolution: 4
Origin: DOW CHEMICAL COMPANY
1/CM	TRANSMITTANCE
453.4	0.95
462.193	0.946
470.985	0.943
479.778	0.937
488.57	0.953
497.363	0.973
506.155	0.983
514.948	0.986
523.74	0.984
532.533	0.982
541.325	0.984
550.118	0.99
558.91	0.993
567.703	0.995
576.495	0.998
585.288	1
594.08	1.001
602.873	1.002
611.665	1
620.458	0.995
629.25	0.994
638.043	1.002
646.835	1.004
655.628	1.002
664.42	1.001
673.213	1.001
682.005	1.001
690.798	0.997
699.591	0.988
708.383	0.982
717.176	0.964
725.968	0.931
734.761	0.851
743.553	0.628
752.346	0.142
761.138	0.015
769.931	0.004
778.723	0
787.516	0
796.308	0
805.101	0.011
813.893	0.628
822.686	0.933
831.478	0.993
840.271	1.001
849.063	1.001
857.856	1.004
866.648	1.001
875.441	1
884.233	1
893.026	1.001
901.818	1
910.611	0.99
919.403	0.995
928.196	1.009
936.989	1.012
945.781	1.015
954.574	1.011
963.366	1.002
972.159	0.993
980.951	0.99
989.744	0.986
998.536	0.968
1007.33	0.955
1016.12	0.961
1024.91	0.991
1033.71	1.008
1042.5	1.006
1051.29	1.002
1060.08	0.997
1068.88	0.991
1077.67	0.991
1086.46	1
1095.25	1
1104.05	1
1112.84	1.001
1121.63	1.005
1130.42	1.012
1139.22	1.008
1148.01	1.009
1156.8	1.011
1165.59	1.012
1174.39	1.006
1183.18	1.011
1191.97	1.009
1200.76	1.008
1209.56	1
1218.35	0.991
1227.14	0.987
1235.93	0.988
1244.73	0.966
1253.52	0.936
1262.31	0.947
1271.1	0.986
1279.9	0.987
1288.69	0.991
1297.48	0.994
1306.27	0.994
1315.07	0.993
1323.86	0.993
1332.65	0.993
1341.44	0.993
1350.24	0.998
1359.03	1.004
1367.82	0.997
1376.61	0.986
1385.41	0.98
1394.2	0.976
1402.99	0.976
1411.78	0.977
1420.58	0.98
1429.37	0.977
1438.16	0.982
1446.95	0.982
1455.75	0.983
1464.54	0.983
1473.33	0.983
1482.12	0.979
1490.92	0.98
1499.71	0.983
1508.5	0.982
1517.29	0.953
1526.09	0.925
1534.88	0.932
1543.67	0.892
1552.46	0.911
1561.26	0.895
1570.05	0.889
1578.84	0.895
1587.63	0.902
1596.43	0.906
1605.22	0.925
1614.01	0.955
1622.8	0.972
1631.6	0.973
1640.39	0.965
1649.18	0.966
1657.98	0.973
1666.77	0.976
1675.56	0.976
1684.35	0.982
1693.15	0.979
1701.94	0.979
1710.73	0.979
1719.52	0.982
1728.32	0.982
1737.11	0.98
1745.9	0.979
1754.69	0.976
1763.49	0.976
1772.28	0.977
1781.07	0.975
1789.86	0.976
1798.66	0.975
1807.45	0.975
1816.24	0.975
1825.03	0.975
1833.83	0.972
1842.62	0.975
1851.41	0.971
1860.2	0.969
1869	0.973
1877.79	0.971
1886.58	0.971
1895.37	0.971
1904.17	0.971
1912.96	0.971
1921.75	0.972
1930.54	0.971
1939.34	0.972
1948.13	0.971
1956.92	0.972
1965.71	0.972
1974.51	0.971
1983.3	0.972
1992.09	0.971
2000.88	0.971
2009.68	0.972
2018.47	0.973
2027.26	0.976
2036.05	0.974
2044.85	0.973
2053.64	0.973
2062.43	0.975
2071.22	0.975
2080.02	0.975
2088.81	0.973
2097.6	0.973
2106.39	0.972
2115.19	0.9755
2123.98	0.976
2132.77	0.976
2141.56	0.975
2150.36	0.975
2159.15	0.975
2167.94	0.975
2176.73	0.975
2185.53	0.976
2194.32	0.976
2203.11	0.977
2211.9	0.977
2220.7	0.977
2229.49	0.977
2238.28	0.977
2247.07	0.977
2255.87	0.977
2264.66	0.977
2273.45	0.977
2282.24	0.977
2291.04	0.977
2299.83	0.977
2308.62	0.979
2317.41	0.979
2326.21	0.979
2335	0.979
2343.79	0.979
2352.58	0.979
2361.38	0.979
2370.17	0.979
2378.96	0.979
2387.75	0.979
2396.55	0.979
2405.34	0.98
2414.13	0.98
2422.92	0.98
2431.72	0.982
2440.51	0.983
2449.3	0.983
2458.09	0.982
2466.89	0.9825
2475.68	0.983
2484.47	0.983
2493.26	0.983
2502.06	0.983
2510.85	0.983
2519.64	0.983
2528.43	0.983
2537.23	0.983
2546.02	0.982
2554.81	0.982
2563.6	0.982
2572.4	0.98
2581.19	0.98
2589.98	0.98
2598.77	0.9794
2607.57	0.979
2616.36	0.979
2625.15	0.9795
2633.94	0.98
2642.74	0.979
2651.53	0.979
2660.32	0.979
2669.11	0.979
2677.91	0.979
2686.7	0.979
2695.49	0.98
2704.28	0.979
2713.08	0.979
2721.87	0.979
2730.66	0.979
2739.45	0.979
2748.25	0.977
2757.04	0.977
2765.83	0.977
2774.62	0.977
2783.42	0.977
2792.21	0.977
2801	0.976
2809.79	0.9766
2818.59	0.976
2827.38	0.979
2836.17	0.9811
2844.97	0.9851
2853.76	0.9834
2862.55	0.983
2871.34	0.98
2880.14	0.9812
2888.93	0.982
2897.72	0.982
2906.51	0.9876
2915.31	0.993
2924.1	0.9843
2932.89	0.98
2941.68	0.979
2950.48	0.977
2959.27	0.976
2968.06	0.9714
2976.85	0.9668
2985.65	0.965
2994.44	0.964
3003.23	0.964
3012.02	0.9614
3020.82	0.96
3029.61	0.96
3038.4	0.958
3047.19	0.958
3055.99	0.9574
3064.78	0.957
3073.57	0.958
3082.36	0.958
3091.16	0.9576
3099.95	0.957
3108.74	0.958
3117.53	0.958
3126.33	0.957
3135.12	0.955
3143.91	0.9544
3152.7	0.955
3161.5	0.957
3170.29	0.957
3179.08	0.957
3187.87	0.957
3196.67	0.957
3205.46	0.9576
3214.25	0.957
3223.04	0.957
3231.84	0.958
3240.63	0.957
3249.42	0.9558
3258.21	0.955
3267.01	0.955
3275.8	0.957
3284.59	0.955
3293.38	0.9558
3302.18	0.955
3310.97	0.9546
3319.76	0.955
3328.55	0.955
3337.35	0.957
3346.14	0.957
3354.93	0.955
3363.72	0.957
3372.52	0.9544
3381.31	0.9546
3390.1	0.9544
3398.89	0.955
3407.69	0.9562
3416.48	0.957
3425.27	0.958
3434.06	0.96
3442.86	0.9604
3451.65	0.961
3460.44	0.961
3469.23	0.962
3478.03	0.962
3486.82	0.964
3495.61	0.965
3504.4	0.968
3513.2	0.969
3521.99	0.969
3530.78	0.969
3539.57	0.969
3548.37	0.969
3557.16	0.969
3565.95	0.971
3574.74	0.9726
3583.54	0.9754
3592.33	0.973
3601.12	0.975
3609.91	0.976
3618.71	0.972
3627.5	0.969
3636.29	0.9766
3645.08	0.975
3653.88	0.9726
3662.67	0.9766
3671.46	0.9754
3680.25	0.9714
3689.05	0.9669
3697.84	0.9756
3706.63	0.975
3715.42	0.976
3724.22	0.9794
3733.01	0.9794
3741.8	0.9777
3750.59	0.9756
3759.39	0.9723
3768.18	0.9724
3776.97	0.972
3785.76	0.9743
