Infrared Spectrum: Benzene
Formula: C 6 H 6
CAS: 71-43-2
State: gas
Origin: Sadtler Research Labs Under US-EPA Contract
1/CM	ABSORBANCE
450	0.0330744
462	0.0164624
474	0.0347207
486	0.00643529
498	0.0224487
510	0.0205031
522	0.0133196
534	0.0209521
546	0.0261901
558	0.0136189
570	0.0242446
582	0.0197549
594	0.0107754
606	0.0205031
618	0.0169114
630	0.0439995
642	0.334486
654	1.02995
666	0.567952
678	0.517966
690	1.23722
702	0.535177
714	0.063006
726	0.00987743
738	0.0121223
750	0.0110747
762	0.0163127
774	0.0142175
786	0.011823
798	0.0161631
810	0.0139182
822	0.00703393
834	0.00823119
846	0.011823
858	0.00793187
870	0.00972777
882	0.0101767
894	0.00793187
906	0.00987743
918	0.00897948
930	0.00868016
942	0.0101767
954	0.0101767
966	0.0100271
978	0.0128706
990	0.0134692
1002	0.0356186
1014	0.112992
1026	0.123169
1038	0.224337
1050	0.120175
1062	0.0742304
1074	0.0182583
1086	0.00942845
1098	0.00778222
1110	0.00897948
1122	0.00972777
1134	0.00823119
1146	0.0100271
1158	0.00823119
1170	0.00853051
1182	0.0104761
1194	0.0101767
1206	0.0104761
1218	0.011823
1230	0.0134692
1242	0.0140679
1254	0.0140679
1266	0.00868016
1278	0.00823119
1290	0.0092788
1302	0.00823119
1314	0.0106257
1326	0.0101767
1338	0.0110747
1350	0.0104761
1362	0.0167617
1374	0.0273874
1386	0.0266391
1398	0.0281357
1410	0.0146665
1422	0.0125713
1434	0.0127209
1446	0.0196052
1458	0.110597
1470	0.239902
1482	0.313234
1494	0.239902
1506	0.175549
1518	0.0758766
1530	0.063006
1542	0.0287343
1554	0.0139182
1566	0.0119726
1578	0.012272
1590	0.0115237
1602	0.0115237
1614	0.012272
1626	0.0160134
1638	0.0169114
1650	0.0178093
1662	0.0149658
1674	0.01751
1686	0.0200542
1698	0.0184079
1710	0.0107754
1722	0.0125713
1734	0.0217004
1746	0.0178093
1758	0.0217004
1770	0.0290337
1782	0.0489382
1794	0.114339
1806	0.133495
1818	0.125114
1830	0.0652509
1842	0.0160134
1854	0.011374
1866	0.0149658
1878	0.0133196
1890	0.0136189
1902	0.0110747
1914	0.0133196
1926	0.0270881
1938	0.068693
1950	0.0941349
1962	0.0853051
1974	0.0558224
1986	0.0160134
1998	0.012272
2010	0.011823
2022	0.0112243
2034	0.0110747
2046	0.00897948
2058	0.00838085
2070	0.00972777
2082	0.00868016
2094	0.00793187
2106	0.00763256
2118	0.00688427
2130	0.00763256
2142	0.00793187
2154	0.00688427
2166	0.00703393
2178	0.00778222
2190	0.00823119
2202	0.0146665
2214	0.0160134
2226	0.011823
2238	0.00763256
2250	0.00658495
2262	0.00658495
2274	0.00823119
2286	0.00793187
2298	0.0104761
2310	0.0217004
2322	0.0254419
2334	0.0233466
2346	0.0106257
2358	0.0167617
2370	0.000598632
2382	0.00493871
2394	0.0100271
2406	0.0112243
2418	0.00838085
2430	0.00763256
2442	0.00553735
2454	0.00583666
2466	0.005687
2478	0.00703393
2490	0.00583666
2502	0.00434008
2514	0.00538769
2526	0.00538769
2538	0.00553735
2550	0.00583666
2562	0.00493871
2574	0.00688427
2586	0.00778222
2598	0.0092788
2610	0.011823
2622	0.00838085
2634	0.00553735
2646	0.00853051
2658	0.00703393
2670	0.00763256
2682	0.00643529
2694	0.00344213
2706	0.000448974
2718	0.000448974
2730	0.000897948
2742	0.00074829
2754	0.00269384
2766	0.00299316
2778	0.00269384
2790	0.00419042
2802	0.00763256
2814	0.0121223
2826	0.0146665
2838	0.0133196
2850	0.012272
2862	0.0121223
2874	0.0169114
2886	0.0219997
2898	0.0302309
2910	0.0163127
2922	0.0119726
2934	0.00823119
2946	0.00613598
2958	0.00643529
2970	0.00553735
2982	0.00613598
2994	0.0101767
3006	0.0299316
3018	0.165522
3030	0.546551
3042	0.685134
3054	0.731977
3066	0.644128
3078	0.525
3090	0.60806
3102	0.502103
3114	0.422185
3126	0.069142
3138	0.00718358
3150	0.00269384
3162	0.00149658
3174	0.00299316
3186	0.00239453
3198	0.00329248
3210	0.0028435
3222	0.00149658
3234	0.00239453
3246	0.00149658
3258	0.00209521
3270	0.0028435
3282	0.00329248
3294	0.00344213
3306	0.00344213
3318	0.00149658
3330	0.000598632
3342	0.00733324
3354	0.00703393
3366	0.00583666
3378	0.00703393
3390	0.00703393
3402	0.00897948
3414	0.00793187
3426	0.00778222
3438	0.00583666
3450	0.00553735
3462	0.00583666
3474	0.00508837
3486	0.00434008
3498	0.00419042
3510	0.005687
3522	0.00508837
3534	0.00239453
3546	0.00404077
3558	0.0028435
3570	0.00374145
3582	0.005687
3594	0.00478906
3606	0.00508837
3618	0.00838085
3630	0.00628564
3642	0.0112243
3654	0.0121223
3666	0.0115237
3678	0.00897948
3690	0.0146665
3702	0.0127209
3714	0.0107754
3726	0.00493871
3738	0.00838085
3750	0.00628564
3762	0.00374145
3774	0.000448974
3786	0.00763256
3798	0.00224487
3810	0.00224487
3822	0.00718358
3834	0.00374145
3846	0.00359179
3858	0.00613598
3870	0.00149658
3882	0.00508837
3894	0.00733324
3906	0.00239453
3918	0.011374
3930	0.00823119
3942	0.00703393
3954	0.00538769
3966	0.00793187
