Infrared Spectrum: 1,4-Dithiane
Formula: C 4 H 8 S 2
CAS: 505-29-3
State: gas
Origin: Sadtler Research Labs Under US-EPA Contract
1/CM	ABSORBANCE
450	0.0245772
462	0.00348768
474	0.00937314
486	0.00735682
498	0.00261576
510	0.00305172
522	0.00283374
534	5.4495e-05
546	0.00310621
558	0.00512253
570	0.00523152
582	0.00365117
594	0.00343319
606	0.00212531
618	0.00354217
630	0.00337869
642	0.00659389
654	0.0191277
666	0.0532961
678	0.0364027
690	0.00795627
702	0.00376015
714	0.00212531
726	0.00283374
738	0.00234329
750	0.00136237
762	0.00299723
774	0.00201631
786	0.00245227
798	0.00310621
810	0.00577647
822	0.00419612
834	0.00381465
846	0.0043596
858	0.005504
870	0.00937314
882	0.0402718
894	0.140216
906	0.15858
918	0.0720969
930	0.0209806
942	0.015967
954	0.00817425
966	0.00534051
978	0.00659389
990	0.00899167
1002	0.00882819
1014	0.00752031
1026	0.00370566
1038	0.00599445
1050	0.00441409
1062	0.00457758
1074	0.00474107
1086	0.00457758
1098	0.00485005
1110	0.00643041
1122	0.0117164
1134	0.0254492
1146	0.054931
1158	0.0667019
1170	0.0354218
1182	0.021689
1194	0.0288824
1206	0.0192912
1218	0.0114984
1230	0.01079
1242	0.0118254
1254	0.0354218
1266	0.114875
1278	0.152259
1290	0.140924
1302	0.070789
1314	0.0360757
1326	0.00697536
1338	0.00485005
1350	0.00621243
1362	0.00784728
1374	0.00692087
1386	0.0171659
1398	0.0619063
1410	0.146973
1422	0.152749
1434	0.0883909
1446	0.0312801
1458	0.00959112
1470	0.00479556
1482	0.00397813
1494	0.00577647
1506	0.00931865
1518	0.0135148
1530	0.0149316
1542	0.015967
1554	0.00277925
1566	0.00223429
1578	0.00250677
1590	0.00277925
1602	0.00201631
1614	0.00234329
1626	0.00168935
1638	0.00245227
1650	0.00245227
1662	0.00212531
1674	0.00245227
1686	0.00250677
1698	0.0021798
1710	0.00130788
1722	0.00250677
1734	0.00299723
1746	0.00174384
1758	0.00223429
1770	0.00283374
1782	0.00316071
1794	0.00185283
1806	0.00147137
1818	0.00114439
1830	0.00076293
1842	0.00201631
1854	0.00125339
1866	0.00130788
1878	0.00168935
1890	0.00239778
1902	0.00305172
1914	0.00310621
1926	0.00245227
1938	0.00168935
1950	0.00119889
1962	0.00087192
1974	0.00114439
1986	0.0010899
1998	0.00103541
2010	0.00141687
2022	0.00103541
2034	0.00136237
2046	0.00228879
2058	0.00207081
2070	0.00223429
2082	0.00316071
2094	0.00392364
2106	0.00337869
2118	0.00267025
2130	0.00234329
2142	0.00261576
2154	0.00277925
2166	0.00228879
2178	0.00163485
2190	0.00201631
2202	0.00228879
2214	0.00277925
2226	0.00305172
2238	0.00359667
2250	0.00294273
2262	0.0021798
2274	0.00250677
2286	0.00294273
2298	0.00414162
2310	0.00593996
2322	0.00376015
2334	0.00125339
2346	0.00310621
2358	0.00168935
2370	0.00196182
2382	0.00310621
2394	0.00207081
2406	0.00272475
2418	0.00179833
2430	0.00103541
2442	0.00087192
2454	0.00076293
2466	0.00054495
2478	0.00065394
2490	0.000272475
2502	0.00010899
2514	0.000490455
2526	0.00043596
2538	0.000381465
2550	0.000599445
2562	0.00087192
2574	0.00158035
2586	0.00125339
2598	0.00098091
2610	0.00130788
2622	0.00168935
2634	0.00103541
2646	0.0010899
2658	0.00130788
2670	0.00190733
2682	0.00294273
2694	0.00354217
2706	0.00392364
2718	0.00381465
2730	0.00234329
2742	0.00152586
2754	0.00245227
2766	0.00376015
2778	0.00610344
2790	0.0109535
2802	0.0289913
2814	0.0520972
2826	0.0487185
2838	0.0287189
2850	0.015967
2862	0.0102996
2874	0.0100271
2886	0.0250677
2898	0.129208
2910	0.413018
2922	0.391383
2934	0.35498
2946	0.315908
2958	0.358414
2970	0.1473
2982	0.0263211
2994	0.00801076
3006	0.00316071
3018	0.00245227
3030	0.0032697
3042	0.00163485
3054	0.00288823
3066	0.00354217
3078	0.00267025
3090	0.00354217
3102	0.00381465
3114	0.00310621
3126	0.00196182
3138	0.00103541
3150	0.00098091
3162	0.00158035
3174	0.00234329
3186	0.00354217
3198	0.00392364
3210	0.00239778
3222	0.0021798
3234	0.00190733
3246	0.00103541
3258	0.00196182
3270	0.00310621
3282	0.00381465
3294	0.00343319
3306	0.00190733
3318	0.00245227
3330	0.00267025
3342	0.0010899
3354	0.00032697
3366	0.000490455
3378	5.4495e-05
3390	0.00098091
3402	0.00141687
3414	0.00294273
3426	0.00425061
3438	0.00376015
3450	0.00163485
3462	0.00147137
3474	0.00114439
3486	0.00054495
3498	0.00054495
3510	0.000599445
3522	0.000926415
3534	0.00114439
3546	0.0010899
3558	0.00130788
3570	0.00190733
3582	0.00267025
3594	0.00179833
3606	0.00141687
3618	0.00228879
3630	0.00310621
3642	0.00076293
3654	0.00147137
3666	0.00179833
3678	0.00196182
3690	0.00174384
3702	0.00147137
3714	0.00136237
3726	0.00179833
3738	0.00196182
3750	0.00163485
3762	0.00114439
3774	0.00212531
3786	0.00196182
3798	0.00305172
3810	0.00430511
3822	0.00534051
3834	0.00332419
3846	0.00359667
3858	0.00441409
3870	0.00381465
3882	0.00332419
3894	0.00392364
3906	0.00299723
3918	0.00256127
3930	0.00288823
3942	0.00201631
3954	0.00288823
3966	0.00147137
