Infrared Spectrum: 3-Methyl-1-pentyne
Formula: C 6 H 10
CAS: 922-59-8
State: gas
Instrument: HP-GC/MS/IRD
Origin: NIST Mass Spectrometry Data Center
1/CM	ABSORBANCE
550	0.0019765
562	0.0019028
574	0.0013199
586	0.001273
598	0.0027269
610	0.0092192
622	0.0310746
634	0.067
646	0.03015
658	0.0073968
670	0.0017621
682	0.000536
694	0.0003149
706	0.0002278
718	0.000201
730	0.0002345
742	0.0002345
754	0.0003953
766	0.0005427
778	0.0006164
790	0.0007169
802	0.0008777
814	0.0009179
826	0.0005695
838	0.0002814
850	0.0001809
862	0.0001407
874	0.000268
886	0.0002747
898	0.0002948
910	0.0002211
922	0.0001005
934	0.0002546
946	0.000536
958	0.0011658
970	0.0018626
982	0.0017889
994	0.0016214
1006	0.0018827
1018	0.0019832
1030	0.0014472
1042	0.0007973
1054	0.0005427
1066	0.0007772
1078	0.0013132
1090	0.0018023
1102	0.0019631
1114	0.0010653
1126	0.0005829
1138	0.0005762
1150	0.0006767
1162	0.0006298
1174	0.0004623
1186	0.0002881
1198	0.0001943
1210	0.0004221
1222	0.0016951
1234	0.0085894
1246	0.0137417
1258	0.0132794
1270	0.0057419
1282	0.002077
1294	0.0016616
1306	0.0019765
1318	0.0033299
1330	0.0043148
1342	0.0038726
1354	0.002747
1366	0.0030284
1378	0.0042679
1390	0.0045158
1402	0.0026867
1414	0.0013534
1426	0.0017219
1438	0.0036917
1450	0.0063114
1462	0.0075643
1474	0.0059228
1486	0.003484
1498	0.0015544
1510	0.0007906
1522	0.0005561
1534	0.0004422
1546	0.0004355
1558	0.0004221
1570	0.000402
1582	0.0003216
1594	0.0002881
1606	0.0002881
1618	0.0003149
1630	0.0003216
1642	0.0002948
1654	0.0002546
1666	0.0002814
1678	0.0002546
1690	0.000201
1702	0.0001139
1714	0.0001608
1726	0.0001139
1738	8.04e-05
1750	7.37e-05
1762	7.37e-05
1774	6.7e-05
1786	0.0001139
1798	8.04e-05
1810	6.7e-05
1822	6.03e-05
1834	0.0001206
1846	0.0001139
1858	7.37e-05
1870	0.0001139
1882	0.0001273
1894	0.0001005
1906	6.03e-05
1918	6.03e-05
1930	7.37e-05
1942	6.7e-05
1954	5.36e-05
1966	2.01e-05
1978	4.02e-05
1990	1.34e-05
2002	3.35e-05
2014	3.35e-05
2026	1.34e-05
2038	1.34e-05
2050	8.71e-05
2062	0.000134
2074	0.0003283
2086	0.0008643
2098	0.0017688
2110	0.0023651
2122	0.0020904
2134	0.0009849
2146	0.0002814
2158	0.0001206
2170	8.04e-05
2182	8.04e-05
2194	0.0001206
2206	0.0001608
2218	9.38e-05
2230	0.0001005
2242	8.04e-05
2254	6.03e-05
2266	0.0001072
2278	0.0001541
2290	0.0001541
2302	0.0001474
2314	0.0001541
2326	0.0001742
2338	0.0002278
2350	0.0002144
2362	0.0002747
2374	0.0002211
2386	0.0002881
2398	0.0002412
2410	0.0002479
2422	0.0002278
2434	0.0002345
2446	0.0002412
2458	0.0002546
2470	0.0002479
2482	0.0002144
2494	0.0002278
2506	0.0002613
2518	0.0002747
2530	0.0003417
2542	0.0003752
2554	0.0004623
2566	0.0004623
2578	0.0004422
2590	0.0004087
2602	0.000469
2614	0.0004489
2626	0.0004556
2638	0.0004824
2650	0.0005293
2662	0.0006499
2674	0.0006566
2686	0.0007906
2698	0.0008442
2710	0.000737
2722	0.0008643
2734	0.0009916
2746	0.0010854
2758	0.001139
2770	0.0012864
2782	0.0013333
2794	0.0014807
2806	0.0016415
2818	0.0018961
2830	0.0023584
2842	0.0032026
2854	0.0058424
2866	0.0111086
2878	0.0179828
2890	0.0215673
2902	0.0194635
2914	0.0192424
2926	0.0263176
2938	0.0345519
2950	0.0346859
2962	0.0381364
2974	0.0485683
2986	0.0425383
2998	0.0228604
3010	0.0072561
3022	0.0033232
3034	0.0023182
3046	0.0019698
3058	0.0018961
3070	0.0018157
3082	0.001742
3094	0.0014539
3106	0.0013333
3118	0.0013199
3130	0.0012931
3142	0.0011457
3154	0.0010787
3166	0.0011926
3178	0.001139
3190	0.0009983
3202	0.0007973
3214	0.000603
3226	0.0006901
3238	0.0006834
3250	0.0007571
3262	0.0011658
3274	0.0023115
3286	0.0041741
3298	0.008375
3310	0.0150616
3322	0.0202407
3334	0.0180766
3346	0.0087636
3358	0.0027202
3370	0.0011524
3382	0.0005494
3394	0.0003149
3406	0.0003283
3418	0.0002144
3430	0.000134
3442	0.0001273
3454	0.0002345
3466	0.0001809
3478	0.0002278
3490	0.0002747
3502	0.0001474
3514	0.0001943
3526	0.0001675
3538	0.0001072
3550	0.000134
3562	0.0001675
3574	0.0001876
3586	0.0001139
3598	0.000134
3610	9.38e-05
3622	4.69e-05
3634	0.0001005
3646	5.36e-05
3658	0.0001139
3670	0.0001273
3682	0.0001675
3694	0.0001608
3706	0.0002278
3718	0.000268
3730	0.0003283
3742	0.0002144
3754	0.0002144
3766	0.0001943
3778	0.0002881
3790	0.0003819
3802	0.0002479
3814	0.0002278
3826	0.0002881
3838	0.0002546
