Infrared Spectrum: Methane, bromodifluoro-
Formula: C H Br F2
CAS: 1511-62-2
State: GAS (100 mmHg, N2 ADDED, TOTAL PRESSURE 600 mmHg)
Class: COBLENTZ
Instrument: DOW KBr FOREPRISM-GRATING
Instrument parameters: GRATING CHANGED AT 5.0, 7.5, 15.0 MICRON
Sampling: TRANSMISSION
Path length: 5 CM
Resolution: 2
Origin: DOW CHEMICAL COMPANY
1/CM	TRANSMITTANCE
466	0.8647
475	0.8663
484	0.867
493	0.8659
502	0.8642
511	0.8604
520	0.8571
529	0.8577
538	0.8582
547	0.8542
556	0.8438
565	0.7998
574	0.6304
583	0.5008
592	0.5368
601	0.7105
610	0.8223
619	0.8506
628	0.8289
637	0.7678
646	0.7233
655	0.7763
664	0.8416
673	0.8449
682	0.8398
691	0.7245
700	0.4503
709	0.0001
718	0.0068
727	0.0006
736	0.1488
745	0.7266
754	0.8362
763	0.8612
772	0.8658
781	0.8612
790	0.8655
799	0.8625
808	0.8539
817	0.8158
826	0.8155
835	0.8476
844	0.8634
853	0.8565
862	0.8255
871	0.7876
880	0.7805
889	0.8095
898	0.8162
907	0.8588
916	0.8765
925	0.8813
934	0.883
943	0.8835
952	0.8782
961	0.8704
970	0.8735
979	0.8901
988	0.8986
997	0.8978
1006	0.8888
1015	0.853
1024	0.822
1033	0.7899
1042	0.8183
1051	0.8546
1060	0.8444
1069	0.7502
1078	0.425
1087	0.0055
1096	0
1105	0
1114	0
1123	0
1132	0.0001
1141	0.0011
1150	0.0117
1159	0.0895
1168	0.4699
1177	0.8418
1186	0.8998
1195	0.9151
1204	0.9174
1213	0.9136
1222	0.9202
1231	0.9254
1240	0.9161
1249	0.88
1258	0.6666
1267	0.0715
1276	0.0071
1285	0.0405
1294	0.0062
1303	0.4337
1312	0.8215
1321	0.832
1330	0.7084
1339	0.5499
1348	0.3802
1357	0.5133
1366	0.5978
1375	0.7437
1384	0.8427
1393	0.8619
1402	0.8649
1411	0.8508
1420	0.8217
1429	0.7881
1438	0.7637
1447	0.7943
1456	0.8612
1465	0.866
1474	0.8669
1483	0.8686
1492	0.8706
1501	0.8717
1510	0.8713
1519	0.8701
1528	0.8691
1537	0.8685
1546	0.8685
1555	0.8688
1564	0.8692
1573	0.8697
1582	0.8702
1591	0.8711
1600	0.8734
1609	0.8756
1618	0.8765
1627	0.8764
1636	0.8768
1645	0.8774
1654	0.8728
1663	0.8537
1672	0.8187
1681	0.8206
1690	0.8328
1699	0.8696
1708	0.8685
1717	0.8672
1726	0.865
1735	0.8636
1744	0.8635
1753	0.865
1762	0.8678
1771	0.8703
1780	0.8719
1789	0.8726
1798	0.8731
1807	0.8739
1816	0.8746
1825	0.8736
1834	0.8712
1843	0.8688
1852	0.8717
1861	0.8703
1870	0.8758
1879	0.8753
1888	0.873
1897	0.8726
1906	0.8753
1915	0.8724
1924	0.8731
1933	0.8744
1942	0.8757
1951	0.8767
1960	0.8772
1969	0.8776
1978	0.8776
1987	0.8775
1996	0.8775
2005	0.8774
2014	0.8774
2023	0.8773
2032	0.877
2041	0.8765
2050	0.8762
2059	0.8759
2068	0.8758
2077	0.8755
2086	0.8751
2095	0.8747
2104	0.874
2113	0.8721
2122	0.8703
2131	0.8685
2140	0.8665
2149	0.8633
2158	0.8598
2167	0.8537
2176	0.8427
2185	0.8174
2194	0.7679
2203	0.6646
2212	0.6047
2221	0.6394
2230	0.7576
2239	0.7309
2248	0.8027
2257	0.7862
2266	0.7805
2275	0.8322
2284	0.8615
2293	0.8631
2302	0.8609
2311	0.8549
2320	0.8424
2329	0.8226
2338	0.8055
2347	0.8068
2356	0.8101
2365	0.819
2374	0.8344
2383	0.8508
2392	0.8674
2401	0.8769
2410	0.8774
2419	0.8757
2428	0.8732
2437	0.8711
2446	0.868
2455	0.8648
2464	0.8688
2473	0.8733
2482	0.8764
2491	0.8777
2500	0.8781
2509	0.8775
2518	0.8761
2527	0.8744
2536	0.8726
2545	0.872
2554	0.8732
2563	0.8752
2572	0.8767
2581	0.8773
2590	0.8775
2599	0.8757
2608	0.8718
2617	0.8711
2626	0.8723
2635	0.8742
2644	0.8758
2653	0.8721
2662	0.8627
2671	0.8597
2680	0.8591
2689	0.8647
2698	0.8722
2707	0.8782
2716	0.8781
2725	0.8779
2734	0.8779
2743	0.8775
2752	0.8771
2761	0.8766
2770	0.8761
2779	0.8759
2788	0.876
2797	0.8761
2806	0.877
2815	0.8773
2824	0.8775
2833	0.878
2842	0.8783
2851	0.8764
2860	0.8717
2869	0.8717
2878	0.8719
2887	0.8723
2896	0.8729
2905	0.8747
2914	0.8758
2923	0.8628
2932	0.8584
2941	0.8577
2950	0.8586
2959	0.8603
2968	0.8615
2977	0.8605
2986	0.8432
2995	0.7711
3004	0.6859
3013	0.5801
3022	0.3557
3031	0.5789
3040	0.6882
3049	0.8315
3058	0.8599
3067	0.868
3076	0.8706
3085	0.8716
3094	0.8731
3103	0.8741
3112	0.8746
3121	0.8747
3130	0.8751
3139	0.8754
3148	0.8758
3157	0.876
3166	0.8764
3175	0.8767
3184	0.8771
3193	0.8775
3202	0.8779
3211	0.8783
3220	0.8791
3229	0.8791
3238	0.8783
3247	0.8773
3256	0.8753
3265	0.8737
3274	0.8733
3283	0.8738
3292	0.8758
3301	0.877
3310	0.8769
3319	0.8761
3328	0.8738
3337	0.8737
3346	0.8756
3355	0.8795
3364	0.8816
3373	0.882
3382	0.8819
3391	0.8815
3400	0.8809
3409	0.8802
3418	0.8797
3427	0.8793
3436	0.8789
3445	0.8787
3454	0.8786
3463	0.8784
3472	0.8782
3481	0.878
3490	0.8777
3499	0.8774
3508	0.8772
3517	0.877
3526	0.8769
3535	0.8767
3544	0.8765
3553	0.8763
3562	0.8762
3571	0.8756
3580	0.8747
3589	0.8738
3598	0.8733
3607	0.8731
3616	0.8744
3625	0.8755
3634	0.8758
3643	0.8754
3652	0.8743
3661	0.8733
3670	0.8724
3679	0.8715
3688	0.8697
3697	0.8669
3706	0.8604
3715	0.858
3724	0.8656
3733	0.8746
3742	0.8787
3751	0.8804
3760	0.8802
3769	0.8797
3778	0.8794
3787	0.879
