Infrared Spectrum: 3-METHOXYPROPYLAMINE
Formula: C4 H11 N O
CAS: 5332-73-0
State: LIQUID (NEAT)
Class: COBLENTZ III
Instrument: BECKMAN IR-4 (HYBRID PRISM-GRATING)
Sampling: TRANSMISSION
Path length: CAPILLARY
Resolution: 4
Origin: UNIVERSITY OF FLORIDA
MICROMETERS	TRANSMITTANCE
0.948	0.909
0.984622	0.909
1.02124	0.911
1.05787	0.911
1.09449	0.909
1.13111	0.909
1.16773	0.909
1.20435	0.909
1.24098	0.908
1.2776	0.907
1.31422	0.909
1.35084	0.91
1.38746	0.91
1.42409	0.909
1.46071	0.909
1.49733	0.908
1.53395	0.907
1.57057	0.907
1.6072	0.907
1.64382	0.907
1.68044	0.907
1.71706	0.907
1.75368	0.906
1.79031	0.903
1.82693	0.903
1.86355	0.901
1.90017	0.897
1.93679	0.899
1.97341	0.905
2.01004	0.902
2.04666	0.903
2.08328	0.902
2.1199	0.902
2.15652	0.901
2.19315	0.893
2.22977	0.886
2.26639	0.887
2.30301	0.888
2.33963	0.891
2.37626	0.892
2.41288	0.89
2.4495	0.892
2.48612	0.894
2.52274	0.9
2.55937	0.899
2.59599	0.896
2.63261	0.892
2.66923	0.887
2.70585	0.868
2.74248	0.84
2.7791	0.801
2.81572	0.772
2.85234	0.763
2.88896	0.74
2.92559	0.708
2.96221	0.608
2.99883	0.639
3.03545	0.638
3.07207	0.672
3.1087	0.699
3.14532	0.71
3.18194	0.751
3.21856	0.778
3.25518	0.788
3.29181	0.783
3.32843	0.702
3.36505	0.51
3.40167	0.291
3.43829	0.334
3.47492	0.3
3.51154	0.367
3.54816	0.503
3.58478	0.748
3.6214	0.756
3.65802	0.789
3.69465	0.839
3.73127	0.854
3.76789	0.868
3.80451	0.872
3.84113	0.877
3.87776	0.884
3.91438	0.893
3.951	0.897
3.98762	0.9
4.02424	0.902
4.06087	0.902
4.09749	0.902
4.13411	0.902
4.17073	0.9
4.20735	0.899
4.24398	0.896
4.2806	0.897
4.31722	0.9
4.35384	0.899
4.39046	0.898
4.42709	0.895
4.46371	0.892
4.50033	0.891
4.53695	0.892
4.57357	0.892
4.6102	0.892
4.64682	0.892
4.68344	0.892
4.72006	0.89
4.75668	0.89
4.79331	0.887
4.82993	0.882
4.86655	0.883
4.90317	0.882
4.93979	0.882
4.97642	0.882
5.01304	0.884
5.04966	0.889
5.08628	0.893
5.1229	0.893
5.15953	0.893
5.19615	0.893
5.23277	0.892
5.26939	0.893
5.30601	0.893
5.34263	0.893
5.37926	0.896
5.41588	0.893
5.4525	0.896
5.48912	0.898
5.52574	0.897
5.56237	0.896
5.59899	0.894
5.63561	0.891
5.67223	0.887
5.70885	0.883
5.74548	0.878
5.7821	0.873
5.81872	0.869
5.85534	0.856
5.89196	0.846
5.92859	0.831
5.96521	0.816
6.00183	0.806
6.03845	0.789
6.07507	0.775
6.1117	0.762
6.14832	0.736
6.18494	0.705
6.22156	0.693
6.25818	0.692
6.29481	0.708
6.33143	0.747
6.36805	0.778
6.40467	0.81
6.44129	0.822
6.47792	0.829
6.51454	0.83
6.55116	0.83
6.58778	0.828
6.6244	0.816
6.66103	0.808
6.69765	0.777
6.73427	0.696
6.77089	0.67
6.80751	0.636
6.84414	0.626
6.88076	0.64
6.91738	0.691
6.954	0.724
6.99062	0.74
7.02724	0.769
7.06387	0.801
7.10049	0.792
7.13711	0.725
7.17373	0.65
7.21035	0.649
7.24698	0.696
7.2836	0.75
7.32022	0.781
7.35684	0.787
7.39346	0.787
7.43009	0.815
7.46671	0.826
7.50333	0.823
7.53995	0.819
7.57657	0.814
7.6132	0.806
7.64982	0.802
7.68644	0.802
7.72306	0.803
7.75968	0.806
7.79631	0.812
7.83293	0.82
7.86955	0.819
7.90617	0.819
7.94279	0.818
7.97942	0.812
8.01604	0.807
8.05266	0.8
8.08928	0.783
8.1259	0.764
8.16253	0.759
8.19915	0.752
8.23577	0.706
8.27239	0.635
8.30901	0.607
8.34564	0.611
8.38226	0.623
8.41888	0.649
8.4555	0.651
8.49212	0.645
8.52875	0.636
8.56537	0.641
8.60199	0.638
8.63861	0.63
8.67523	0.622
8.71186	0.61
8.74848	0.594
8.7851	0.569
8.82172	0.504
8.85834	0.382
8.89496	0.26
8.93159	0.124
8.96821	0.111
9.00483	0.139
9.04145	0.211
9.07807	0.277
9.1147	0.343
9.15132	0.401
9.18794	0.444
9.22456	0.487
9.26118	0.521
9.29781	0.575
9.33443	0.61
9.37105	0.618
9.40767	0.641
9.44429	0.67
9.48092	0.686
9.51754	0.699
9.55416	0.7
9.59078	0.694
9.6274	0.68
9.66403	0.667
9.70065	0.663
9.73727	0.673
9.77389	0.693
9.81051	0.7
9.84714	0.702
9.88376	0.702
9.92038	0.701
9.957	0.699
9.99362	0.701
10.0302	0.704
10.0669	0.709
10.1035	0.706
10.1401	0.703
10.1767	0.698
10.2134	0.695
10.25	0.689
10.2866	0.684
10.3232	0.67
10.3598	0.663
10.3965	0.66
10.4331	0.66
10.4697	0.658
10.5063	0.653
10.543	0.641
10.5796	0.632
10.6162	0.622
10.6528	0.611
10.6894	0.601
10.7261	0.598
10.7627	0.591
10.7993	0.583
10.8359	0.579
10.8726	0.573
10.9092	0.572
10.9458	0.572
10.9824	0.575
11.019	0.576
11.0557	0.575
11.0923	0.573
11.1289	0.57
11.1655	0.566
11.2021	0.563
11.2388	0.553
11.2754	0.549
11.312	0.543
11.3486	0.541
11.3853	0.538
11.4219	0.536
11.4585	0.534
11.4951	0.533
11.5317	0.533
11.5684	0.532
11.605	0.531
11.6416	0.531
11.6782	0.529
11.7149	0.528
11.7515	0.525
11.7881	0.525
11.8247	0.525
11.8613	0.525
11.898	0.525
11.9346	0.526
11.9712	0.528
12.0078	0.53
12.0445	0.531
12.0811	0.535
12.1177	0.542
12.1543	0.548
12.1909	0.553
12.2276	0.559
12.2642	0.569
12.3008	0.576
12.3374	0.587
12.3741	0.597
12.4107	0.602
12.4473	0.614
12.4839	0.623
12.5205	0.633
12.5572	0.639
12.5938	0.649
12.6304	0.654
12.667	0.655
12.7036	0.655
12.7403	0.655
12.7769	0.655
12.8135	0.654
12.8501	0.654
12.8868	0.654
12.9234	0.657
12.96	0.66
12.9966	0.661
13.0332	0.662
13.0699	0.664
13.1065	0.667
13.1431	0.671
13.1797	0.675
13.2164	0.681
13.253	0.694
13.2896	0.699
13.3262	0.703
13.3628	0.707
13.3995	0.715
13.4361	0.72
13.4727	0.723
13.5093	0.727
13.546	0.728
13.5826	0.728
13.6192	0.729
13.6558	0.729
13.6924	0.728
13.7291	0.726
13.7657	0.725
13.8023	0.725
13.8389	0.723
13.8756	0.72
13.9122	0.718
13.9488	0.713
13.9854	0.713
14.022	0.711
14.0587	0.71
14.0953	0.705
14.1319	0.705
14.1685	0.703
14.2051	0.702
14.2418	0.701
14.2784	0.699
14.315	0.695
14.3516	0.693
14.3883	0.691
14.4249	0.686
14.4615	0.682
14.4981	0.679
14.5347	0.674
14.5714	0.67
14.608	0.668
14.6446	0.665
14.6812	0.661
14.7179	0.657
14.7545	0.652
14.7911	0.652
14.8277	0.65
14.8643	0.649
14.901	0.65
14.9376	0.65
14.9742	0.647
