Infrared Spectrum: 1-Propanamine, 3-methoxy-
Formula: C 4 H 11 N O
CAS: 5332-73-0
State: gas
Origin: Sadtler Research Labs Under US-EPA Contract
1/CM	ABSORBANCE
450	0.00625691
462	0.00645554
474	0.00585964
486	0.0245311
498	0.0243324
510	0.0197639
522	0.0201611
534	0.0280071
546	0.0322777
558	0.0199625
570	0.0203598
582	0.0219488
594	0.0174796
606	0.0359524
618	0.027014
630	0.0266167
642	0.0411168
654	0.0493601
666	0.0422093
678	0.0587951
690	0.0661445
702	0.0741891
714	0.107063
726	0.150563
738	0.225348
750	0.305993
762	0.342938
774	0.341349
786	0.313739
798	0.248687
810	0.181351
822	0.136162
834	0.107857
846	0.082333
858	0.0836241
870	0.0853124
882	0.0870008
894	0.0957406
906	0.0902782
918	0.0859083
930	0.0746856
942	0.0668397
954	0.0664424
966	0.0754802
978	0.0758774
990	0.0774665
1002	0.0818364
1014	0.0929598
1026	0.105772
1038	0.112426
1050	0.112823
1062	0.140731
1074	0.192077
1086	0.261896
1098	0.388921
1110	0.632345
1122	0.947077
1134	0.941516
1146	0.482676
1158	0.274609
1170	0.218197
1182	0.217999
1194	0.234982
1206	0.217105
1218	0.151656
1230	0.101501
1242	0.0725007
1254	0.055617
1266	0.0505518
1278	0.049658
1290	0.0507505
1302	0.0490621
1314	0.0443943
1326	0.041812
1338	0.0487642
1350	0.0660451
1362	0.0916687
1374	0.130303
1386	0.168241
1398	0.143114
1410	0.0790555
1422	0.0638602
1434	0.0749836
1446	0.0924632
1458	0.131792
1470	0.137652
1482	0.108155
1494	0.0610793
1506	0.0443943
1518	0.0332709
1530	0.0265174
1542	0.0355551
1554	0.0287023
1566	0.028901
1578	0.0375414
1590	0.0422093
1602	0.0615759
1614	0.093655
1626	0.111929
1638	0.0890865
1650	0.0510484
1662	0.0290996
1674	0.0201611
1686	0.021055
1698	0.0183735
1710	0.0110241
1722	0.0104282
1734	0.0159899
1746	0.00943502
1758	0.00943502
1770	0.0111234
1782	0.00734938
1794	0.00943502
1806	0.0074487
1818	0.00635622
1830	0.00854118
1842	0.00764733
1854	0.0055617
1866	0.00655486
1878	0.00605828
1890	0.00516443
1902	0.00337674
1914	0.00347606
1926	0.00317811
1938	0.00327743
1950	0.0043699
1962	0.00357538
1974	0.00446922
1986	0.00665417
1998	0.0068528
2010	0.00764733
2022	0.0093357
2034	0.00923639
2046	0.0093357
2058	0.00943502
2070	0.00844186
2082	0.0080446
2094	0.00903776
2106	0.00705144
2118	0.00595896
2130	0.00595896
2142	0.00476717
2154	0.00407196
2166	0.00387332
2178	0.00317811
2190	0.00238358
2202	0.00258222
2214	0.00268153
2226	0.00208564
2238	0.00337674
2250	0.00238358
2262	0.00238358
2274	0.0024829
2286	0.00099316
2298	0.0024829
2310	0.00794528
2322	0.0133083
2334	0.0147981
2346	0.0154933
2358	0.0232399
2370	0.0145995
2382	0.00476717
2394	0.00148974
2406	0.00099316
2418	0.00158906
2430	0.00208564
2442	0.000397264
2454	0.000893844
2466	0.00129111
2478	0.00049658
2490	0.00139042
2502	0.00109248
2514	9.9316e-05
2526	0.00178769
2538	0.00317811
2550	0.0030788
2562	0.00466785
2574	0.00655486
2586	0.00814391
2598	0.0117193
2610	0.0128118
2622	0.0127124
2634	0.0139042
2646	0.0158906
2658	0.016983
2670	0.0194659
2682	0.0237365
2694	0.0266167
2706	0.0348599
2718	0.0460826
2730	0.0589937
2742	0.0705144
2754	0.0748843
2766	0.0719048
2778	0.0724014
2790	0.087696
2802	0.15394
2814	0.302417
2826	0.430932
2838	0.48208
2850	0.541074
2862	0.66204
2874	0.716466
2886	0.665219
2898	0.586958
2910	0.58944
2922	0.65628
2934	0.77824
2946	0.747849
2958	0.558851
2970	0.389418
2982	0.327643
2994	0.27441
3006	0.164269
3018	0.0718055
3030	0.0435004
3042	0.0335688
3054	0.0273119
3066	0.0224454
3078	0.0208564
3090	0.0165858
3102	0.0145995
3114	0.0128118
3126	0.0104282
3138	0.00953434
3150	0.00864049
3162	0.0068528
3174	0.00715075
3186	0.00754802
3198	0.00705144
3210	0.00695212
3222	0.00526375
3234	0.00506512
3246	0.00278085
3258	0.0043699
3270	0.00268153
3282	0.00347606
3294	0.0043699
3306	0.00317811
3318	0.00367469
3330	0.00725007
3342	0.0129111
3354	0.0138049
3366	0.0105275
3378	0.00516443
3390	0.00367469
3402	0.00814391
3414	0.0112227
3426	0.0107261
3438	0.00754802
3450	0.00357538
3462	0.0030788
3474	0.00288016
3486	0.00158906
3498	0.00129111
3510	0.0024829
3522	0.00158906
3534	0.000794528
3546	0.00297948
3558	0.00317811
3570	0.00288016
3582	0.00317811
3594	0.00576033
3606	0.00506512
3618	0.0068528
3630	0.0112227
3642	0.0055617
3654	0.00824323
3666	0.00834254
3678	0.0119179
3690	0.0144008
3702	0.013507
3714	0.0141029
3726	0.0165858
3738	0.0187707
3750	0.0209557
3762	0.0186714
3774	0.0178769
3786	0.0192673
3798	0.0243324
3810	0.0249283
3822	0.0233393
3834	0.0232399
3846	0.0231406
3858	0.0231406
3870	0.0250276
3882	0.0243324
3894	0.0204591
3906	0.0235379
3918	0.0257228
3930	0.0249283
3942	0.0228427
3954	0.00605828
3966	0.00784596
