Infrared Spectrum: CYCLOBUTANONE
Formula: C4 H6 O
CAS: 1191-95-3
State: SOLUTION (2% IN CCl4 FOR 3800-1333, 2% IN CS2 FOR 1333-450 CM^-^1)
Class: COBLENTZ III
Instrument: DOW KBr FOREPRISM-GRATING
Instrument parameters: BLAZED AT 3.5, 12.0, 20.0 MICRON, CHANGED AT 5.0, 7.5, 14.9 MICRON
Sampling: TRANSMISSION
Path length: 0.011, 0.011 CM
Resolution: 4
Origin: DOW CHEMICAL COMPANY
1/CM	TRANSMITTANCE
452.3	0.917
460.818	0.916
469.336	0.954
477.854	0.961
486.372	0.965
494.89	0.966
503.407	0.977
511.925	0.977
520.443	0.981
528.961	0.986
537.479	0.99
545.997	0.994
554.515	0.998
563.033	0.993
571.551	0.997
580.069	0.996
588.586	0.993
597.104	0.99
605.622	0.988
614.14	0.974
622.658	0.968
631.176	0.965
639.694	0.946
648.212	0.916
656.73	0.913
665.248	0.934
673.765	0.936
682.283	0.936
690.801	0.933
699.319	0.93
707.837	0.92
716.355	0.897
724.873	0.892
733.391	0.917
741.909	0.937
750.427	0.936
758.944	0.909
767.462	0.936
775.98	0.949
784.498	0.946
793.016	0.944
801.534	0.945
810.052	0.941
818.57	0.945
827.088	0.942
835.606	0.922
844.123	0.873
852.641	0.777
861.159	0.782
869.677	0.817
878.195	0.854
886.713	0.896
895.231	0.934
903.749	0.949
912.267	0.957
920.785	0.957
929.302	0.957
937.82	0.957
946.338	0.953
954.856	0.929
963.374	0.95
971.892	0.964
980.41	0.966
988.928	0.966
997.446	0.965
1005.96	0.968
1014.48	0.964
1023	0.957
1031.52	0.948
1040.04	0.93
1048.55	0.898
1057.07	0.836
1065.59	0.608
1074.11	0.257
1082.62	0.629
1091.14	0.824
1099.66	0.89
1108.18	0.912
1116.7	0.918
1125.21	0.916
1133.73	0.902
1142.25	0.918
1150.77	0.921
1159.29	0.909
1167.8	0.918
1176.32	0.921
1184.84	0.92
1193.36	0.912
1201.88	0.838
1210.39	0.86
1218.91	0.938
1227.43	0.948
1235.95	0.921
1244.46	0.896
1252.98	0.945
1261.5	0.954
1270.02	0.96
1278.54	0.96
1287.05	0.961
1295.57	0.96
1304.09	0.96
1312.61	0.956
1321.13	0.949
1329.64	0.925
1338.16	0.92
1346.68	0.944
1355.2	0.942
1363.72	0.94
1372.23	0.925
1380.75	0.893
1389.27	0.8019
1397.79	0.648
1406.3	0.87
1414.82	0.92
1423.34	0.942
1431.86	0.941
1440.38	0.94
1448.89	0.942
1457.41	0.948
1465.93	0.936
1474.45	0.944
1482.97	0.901
1491.48	0.881
1500	0.842
1508.52	0.789
1517.04	0.73
1525.56	0.69
1534.07	0.616
1542.59	0.517
1551.11	0.469
1559.63	0.5131
1568.15	0.592
1576.66	0.66
1585.18	0.674
1593.7	0.725
1602.22	0.816
1610.73	0.886
1619.25	0.934
1627.77	0.953
1636.29	0.969
1644.81	0.965
1653.32	0.973
1661.84	0.962
1670.36	0.964
1678.88	0.96
1687.4	0.961
1695.91	0.957
1704.43	0.95
1712.95	0.934
1721.47	0.912
1729.99	0.916
1738.5	0.89
1747.02	0.844
1755.54	0.814
1764.06	0.752
1772.57	0.5408
1781.09	0.0889
1789.61	0.01
1798.13	0.037
1806.65	0.3251
1815.16	0.653
1823.68	0.806
1832.2	0.88
1840.72	0.9
1849.24	0.921
1857.75	0.932
1866.27	0.941
1874.79	0.95
1883.31	0.954
1891.83	0.961
1900.34	0.962
1908.86	0.962
1917.38	0.962
1925.9	0.969
1934.41	0.972
1942.93	0.974
1951.45	0.969
1959.97	0.966
1968.49	0.964
1977	0.954
1985.52	0.958
1994.04	0.961
2002.56	0.957
2011.08	0.958
2019.59	0.959
2028.11	0.9629
2036.63	0.974
2045.15	0.9684
2053.67	0.973
2062.18	0.9734
2070.7	0.9692
2079.22	0.977
2087.74	0.977
2096.26	0.9766
2104.77	0.973
2113.29	0.9747
2121.81	0.9766
2130.33	0.969
2138.84	0.9673
2147.36	0.966
2155.88	0.969
2164.4	0.968
2172.92	0.972
2181.43	0.973
2189.95	0.9748
2198.47	0.9745
2206.99	0.978
2215.51	0.978
2224.02	0.977
2232.54	0.9768
2241.06	0.97
2249.58	0.969
2258.1	0.966
2266.61	0.964
2275.13	0.956
2283.65	0.953
2292.17	0.952
2300.68	0.9531
2309.2	0.956
2317.72	0.957
2326.24	0.9642
2334.76	0.9747
2343.27	0.9569
2351.79	0.976
2360.31	0.9822
2368.83	0.994
2377.35	0.9849
2385.86	0.978
2394.38	0.977
2402.9	0.9759
2411.42	0.978
2419.94	0.98
2428.45	0.978
2436.97	0.978
2445.49	0.977
2454.01	0.9741
2462.52	0.968
2471.04	0.9699
2479.56	0.9719
2488.08	0.976
2496.6	0.977
2505.11	0.9849
2513.63	0.9849
2522.15	0.9782
2530.67	0.9742
2539.19	0.9779
2547.7	0.9819
2556.22	0.9804
2564.74	0.9778
2573.26	0.9802
2581.78	0.978
2590.29	0.9784
2598.81	0.978
2607.33	0.978
2615.85	0.978
2624.36	0.978
2632.88	0.981
2641.4	0.978
2649.92	0.978
2658.44	0.978
2666.95	0.978
2675.47	0.978
2683.99	0.978
2692.51	0.98
2701.03	0.978
2709.54	0.977
2718.06	0.978
2726.58	0.978
2735.1	0.9774
2743.62	0.976
2752.13	0.9776
2760.65	0.9774
2769.17	0.976
2777.69	0.972
2786.21	0.9686
2794.72	0.977
2803.24	0.98
2811.76	0.978
2820.28	0.977
2828.79	0.978
2837.31	0.9791
2845.83	0.981
2854.35	0.979
2862.87	0.9665
2871.38	0.962
2879.9	0.9521
2888.42	0.9335
2896.94	0.9295
2905.46	0.9389
2913.97	0.9323
2922.49	0.8906
2931.01	0.8276
2939.53	0.8473
2948.05	0.8804
2956.56	0.8649
2965.08	0.8024
2973.6	0.7231
2982.12	0.7913
2990.63	0.8257
2999.15	0.795
3007.67	0.7523
3016.19	0.8671
3024.71	0.9241
3033.22	0.9459
3041.74	0.9549
3050.26	0.9585
3058.78	0.961
3067.3	0.965
3075.81	0.965
3084.33	0.968
3092.85	0.9692
3101.37	0.9722
3109.89	0.976
3118.4	0.978
3126.92	0.977
3135.44	0.978
3143.96	0.974
3152.47	0.9804
3160.99	0.9811
3169.51	0.9811
3178.03	0.985
3186.55	0.9838
3195.06	0.985
3203.58	0.9881
3212.1	0.9899
3220.62	0.989
3229.14	0.9899
3237.65	0.99
3246.17	0.993
3254.69	0.993
3263.21	0.986
3271.73	0.994
3280.24	0.997
3288.76	1.001
3297.28	0.996
3305.8	1
3314.31	0.9981
3322.83	0.997
3331.35	1
3339.87	1.001
3348.39	0.9971
3356.9	0.994
3365.42	1
3373.94	0.9971
3382.46	1.001
3390.98	1.0044
3399.49	0.9943
3408.01	1.0041
3416.53	0.993
3425.05	1.0005
3433.57	1.0002
3442.08	0.9996
3450.6	1.001
3459.12	0.998
3467.64	0.9932
3476.16	0.994
3484.67	0.992
3493.19	0.99
3501.71	0.99
3510.23	0.989
3518.74	0.9853
3527.26	0.9826
3535.78	0.972
3544.3	0.9612
3552.82	0.9506
3561.33	0.9567
3569.85	0.9677
3578.37	0.977
3586.89	0.984
3595.41	0.985
3603.92	0.9886
3612.44	0.99
3620.96	0.9884
3629.48	0.9942
3638	0.9912
3646.51	0.9844
3655.03	0.9884
3663.55	0.9992
3672.07	1.001
3680.58	0.9935
3689.1	0.9855
3697.62	0.981
3706.14	0.9905
3714.66	0.9985
3723.17	1.001
3731.69	1.0055
3740.21	1.008
3748.73	1.0011
3757.25	0.9951
3765.76	0.993
3774.28	0.996
3782.8	0.996
3791.32	0.996
