Infrared Spectrum: Cyclobutanone
Formula: C 4 H 6 O
CAS: 1191-95-3
State: gas
Instrument: HP-GC/MS/IRD
Origin: NIST Mass Spectrometry Data Center
1/CM	ABSORBANCE
550	0.000304
562	3.04e-05
574	0.0001216
586	0.0001368
598	0.000304
610	0.000304
622	0.0003344
634	0.0003496
646	0.0004864
658	0.000684
670	0.0008512
682	0.001064
694	0.0013984
706	0.0019152
718	0.0019152
730	0.0014896
742	0.0013224
754	0.001064
766	0.0011704
778	0.0013376
790	0.0013984
802	0.0013984
814	0.001292
826	0.001064
838	0.0010792
850	0.0010336
862	0.0008968
874	0.0006688
886	0.0005776
898	0.0004864
910	0.0005776
922	0.0007296
934	0.00114
946	0.0012768
958	0.0013832
970	0.0014592
982	0.0014744
994	0.0021432
1006	0.0036632
1018	0.0060192
1030	0.0107008
1042	0.0193648
1054	0.0279984
1066	0.0304152
1078	0.0283632
1090	0.0163856
1102	0.0073872
1114	0.00494
1126	0.0034352
1138	0.0029336
1150	0.0024472
1162	0.0017328
1174	0.0020216
1186	0.0030704
1198	0.0039672
1210	0.0050464
1222	0.0056848
1234	0.0038304
1246	0.0033744
1258	0.003116
1270	0.002204
1282	0.0016112
1294	0.0012008
1306	0.0011704
1318	0.0013984
1330	0.0014896
1342	0.0018088
1354	0.001976
1366	0.0028424
1378	0.0051224
1390	0.0080864
1402	0.0068856
1414	0.0083752
1426	0.0051984
1438	0.002964
1450	0.0018088
1462	0.0013832
1474	0.0013072
1486	0.0011856
1498	0.0010184
1510	0.0008664
1522	0.0006992
1534	0.0005928
1546	0.0005624
1558	0.0006232
1570	0.0007752
1582	0.0009576
1594	0.0009728
1606	0.0008664
1618	0.0007448
1630	0.0007752
1642	0.0008816
1654	0.000988
1666	0.0011096
1678	0.0012616
1690	0.0013984
1702	0.0014896
1714	0.0019
1726	0.0027664
1738	0.0046208
1750	0.008512
1762	0.0187264
1774	0.0438824
1786	0.09158
1798	0.137955
1810	0.152
1822	0.128136
1834	0.064296
1846	0.01368
1858	0.0053656
1870	0.0034656
1882	0.002736
1894	0.0023104
1906	0.0019608
1918	0.0016568
1930	0.0014896
1942	0.0016112
1954	0.0017632
1966	0.0016416
1978	0.001444
1990	0.0010488
2002	0.000836
2014	0.000836
2026	0.0008664
2038	0.0008056
2050	0.0007752
2062	0.0007448
2074	0.00076
2086	0.0008208
2098	0.0009728
2110	0.0010792
2122	0.00114
2134	0.0010184
2146	0.0008968
2158	0.000684
2170	0.000532
2182	0.0004256
2194	0.0004256
2206	0.0003496
2218	0.0003344
2230	0.0002432
2242	0.0002888
2254	0.0002736
2266	0.0002736
2278	0.0003344
2290	0.00038
2302	0.00038
2314	0.0003648
2326	0.0003344
2338	0.0002584
2350	0.0002128
2362	0.0001824
2374	0.0001976
2386	9.12e-05
2398	7.6e-05
2410	7.6e-05
2422	9.12e-05
2434	0.0001216
2446	0.0001976
2458	0.0003496
2470	0.0005624
2482	0.0005928
2494	0.0005624
2506	0.0003192
2518	0.0001672
2530	0.000152
2542	4.56e-05
2554	4.56e-05
2566	7.6e-05
2578	3.04e-05
2590	3.04e-05
2602	4.56e-05
2614	7.6e-05
2626	7.6e-05
2638	0.0001064
2650	9.12e-05
2662	0.0001064
2674	0.0001824
2686	0.0001824
2698	0.0001368
2710	0.0001216
2722	0.0001824
2734	0.000228
2746	0.0002736
2758	0.0003648
2770	0.0004864
2782	0.0006688
2794	0.00076
2806	0.0008664
2818	0.0007752
2830	0.0008056
2842	0.0009576
2854	0.0013376
2866	0.001976
2878	0.0029944
2890	0.0043168
2902	0.0056848
2914	0.0082384
2926	0.012388
2938	0.0134976
2950	0.0176776
2962	0.020976
2974	0.0220704
2986	0.0206264
2998	0.0207328
3010	0.0169784
3022	0.0100472
3034	0.0073416
3046	0.0040736
3058	0.0024928
3070	0.0022192
3082	0.0019304
3094	0.0016112
3106	0.001064
3118	0.0006384
3130	0.0002888
3142	0.000228
3154	0.0001064
3166	6.08e-05
3178	9.12e-05
3190	9.12e-05
3202	7.6e-05
3214	6.08e-05
3226	3.04e-05
3238	3.04e-05
3250	9.12e-05
3262	0
3274	7.6e-05
3286	7.6e-05
3298	0.0001064
3310	4.56e-05
3322	6.08e-05
3334	9.12e-05
3346	0.000152
3358	0.0001672
3370	0.0003344
3382	0.0002584
3394	0.0003192
3406	0.000228
3418	0.0001368
3430	0.0001064
3442	0.0001216
3454	0.0001368
3466	0.0001064
3478	0.0001368
3490	0.0001672
3502	0.0001672
3514	0.0001824
3526	0.0003192
3538	0.0005016
3550	0.0007296
3562	0.001292
3574	0.0020824
3586	0.0027664
3598	0.0030096
3610	0.0026752
3622	0.0017936
3634	0.0010792
3646	0.0006536
3658	0.0004712
3670	0.0003344
3682	0.0002128
3694	0.0001976
3706	0.000152
3718	0.0001368
3730	0.000228
3742	0.000152
3754	0.0001216
3766	0.0001824
3778	0.0001368
3790	6.08e-05
3802	0.0001064
3814	0.0001824
3826	0.0001976
3838	0.0002432
