Infrared Spectrum: SULFONE, DIMETHYL-
Formula: C2 H6 O2 S
CAS: 67-71-0
State: SOLID (SPLIT MULL, FLUOROLUBE FOR 3800-1333 AND NUJOL FOR 1333-400 CM ^-^1)
Class: COBLENTZ III
Instrument: PERKIN-ELMER 225
Sampling: TRANSMISSION
Resolution: 4
Origin: DOW CHEMICAL COMPANY
1/CM	TRANSMITTANCE
204.101	0.421
213.474	0.609
222.847	0.702
232.221	0.799
241.594	0.849
250.967	0.891
260.34	0.913
269.713	0.931
279.086	0.935
288.46	0.919
297.833	0.825
307.206	0.65
316.579	0.907
325.952	0.95
335.326	0.957
344.699	0.956
354.072	0.959
363.445	0.966
372.818	0.963
382.191	0.96
391.565	0.953
400.938	0.948
410.311	0.957
419.684	0.944
429.057	0.918
438.43	0.874
447.804	0.6879
457.177	0.259
466.55	0.679
475.923	0.84
485.296	0.805
494.67	0.4999
504.043	0.666
513.416	0.885
522.789	0.925
532.162	0.931
541.535	0.926
550.909	0.92
560.282	0.916
569.655	0.916
579.028	0.916
588.401	0.912
597.775	0.915
607.148	0.919
616.521	0.919
625.894	0.929
635.267	0.931
644.64	0.942
654.014	0.959
663.387	0.961
672.76	0.948
682.133	0.932
691.506	0.86
700.88	0.863
710.253	0.882
719.626	0.841
728.999	0.856
738.372	0.849
747.745	0.797
757.119	0.494
766.492	0.625
775.865	0.869
785.238	0.916
794.611	0.926
803.984	0.926
813.358	0.926
822.731	0.926
832.104	0.922
841.477	0.922
850.85	0.922
860.224	0.918
869.597	0.913
878.97	0.898
888.343	0.874
897.716	0.841
907.089	0.802
916.463	0.695
925.836	0.443
935.209	0.165
944.582	0.4901
953.955	0.711
963.329	0.793
972.702	0.821
982.075	0.846
991.448	0.853
1000.82	0.862
1010.19	0.863
1019.57	0.855
1028.94	0.849
1038.31	0.836
1047.69	0.821
1057.06	0.808
1066.43	0.789
1075.81	0.751
1085.18	0.708
1094.55	0.644
1103.93	0.546
1113.3	0.396
1122.67	0.224
1132.05	0.133
1141.42	0.216
1150.79	0.387
1160.17	0.522
1169.54	0.591
1178.91	0.635
1188.28	0.658
1197.66	0.67
1207.03	0.667
1216.4	0.66
1225.78	0.622
1235.15	0.578
1244.52	0.527
1253.9	0.436
1263.27	0.355
1272.64	0.266
1282.02	0.181
1291.39	0.156
1300.76	0.194
1310.14	0.18
1319.51	0.36
1328.88	0.3299
1338.26	0.6311
1347.63	0.783
1357	0.836
1366.38	0.85
1375.75	0.841
1385.12	0.806
1394.49	0.79
1403.87	0.6959
1413.24	0.821
1422.61	0.556
1431.99	0.869
1441.36	0.901
1450.73	0.898
1460.11	0.891
1469.48	0.923
1478.85	0.937
1488.23	0.934
1497.6	0.926
1506.97	0.939
1516.35	0.941
1525.72	0.935
1535.09	0.945
1544.47	0.95
1553.84	0.953
1563.21	0.954
1572.59	0.945
1581.96	0.947
1591.33	0.942
1600.7	0.942
1610.08	0.944
1619.45	0.938
1628.82	0.934
1638.2	0.934
1647.57	0.931
1656.94	0.934
1666.32	0.935
1675.69	0.935
1685.06	0.935
1694.44	0.942
1703.81	0.942
1713.18	0.942
1722.56	0.942
1731.93	0.939
1741.3	0.934
1750.68	0.939
1760.05	0.945
1769.42	0.945
1778.8	0.947
1788.17	0.945
1797.54	0.947
1806.91	0.945
1816.29	0.945
1825.66	0.944
1835.03	0.947
1844.41	0.947
1853.78	0.947
1863.15	0.948
1872.53	0.945
1881.9	0.947
1891.27	0.947
1900.65	0.948
1910.02	0.948
1919.39	0.948
1928.77	0.947
1938.14	0.944
1947.51	0.947
1956.89	0.942
1966.26	0.941
1975.63	0.941
1985.01	0.939
1994.38	0.937
2003.75	0.925
2013.12	0.937
2022.5	0.939
2031.87	0.941
2041.24	0.9371
2050.62	0.9351
2059.99	0.9321
2069.36	0.9231
2078.74	0.9258
2088.11	0.929
2097.48	0.9281
2106.86	0.928
2116.23	0.9202
2125.6	0.919
2134.98	0.9217
2144.35	0.92
2153.72	0.918
2163.1	0.9152
2172.47	0.9152
2181.84	0.9134
2191.22	0.912
2200.59	0.9092
2209.96	0.906
2219.33	0.9014
2228.71	0.8972
2238.08	0.893
2247.45	0.8747
2256.83	0.8592
2266.2	0.862
2275.57	0.866
2284.95	0.884
2294.32	0.8813
2303.69	0.877
2313.07	0.8659
2322.44	0.863
2331.81	0.865
2341.19	0.8707
2350.56	0.889
2359.93	0.89
2369.31	0.8874
2378.68	0.8844
2388.05	0.8784
2397.43	0.866
2406.8	0.8802
2416.17	0.884
2425.54	0.891
2434.92	0.891
2444.29	0.8922
2453.66	0.894
2463.04	0.8966
2472.41	0.898
2481.78	0.9
2491.16	0.9005
2500.53	0.898
2509.9	0.898
2519.28	0.898
2528.65	0.897
2538.02	0.894
2547.4	0.894
2556.77	0.893
2566.14	0.894
2575.52	0.896
2584.89	0.894
2594.26	0.8936
2603.63	0.893
2613.01	0.8876
2622.38	0.8846
2631.75	0.8844
2641.13	0.89
2650.5	0.89
2659.87	0.887
2669.25	0.888
2678.62	0.885
2687.99	0.884
2697.37	0.884
2706.74	0.8817
2716.11	0.8803
2725.49	0.879
2734.86	0.879
2744.23	0.877
2753.61	0.872
2762.98	0.871
2772.35	0.871
2781.73	0.869
2791.1	0.869
2800.47	0.8675
2809.84	0.863
2819.22	0.859
2828.59	0.855
2837.96	0.8498
2847.34	0.846
2856.71	0.846
2866.08	0.843
2875.46	0.841
2884.83	0.84
2894.2	0.8338
2903.58	0.8267
2912.95	0.8146
2922.32	0.7813
2931.7	0.5293
2941.07	0.8185
2950.44	0.828
2959.82	0.8238
2969.19	0.8187
2978.56	0.814
2987.94	0.8088
2997.31	0.7921
3006.68	0.6976
3016.05	0.332
3025.43	0.361
3034.8	0.8195
3044.17	0.843
3053.55	0.837
3062.92	0.836
3072.29	0.834
3081.67	0.834
3091.04	0.836
3100.41	0.837
3109.79	0.84
3119.16	0.844
3128.53	0.846
3137.91	0.846
3147.28	0.846
3156.65	0.8472
3166.03	0.8472
3175.4	0.844
3184.77	0.843
3194.15	0.841
3203.52	0.8371
3212.89	0.837
3222.26	0.833
3231.64	0.831
3241.01	0.831
3250.38	0.83
3259.76	0.828
3269.13	0.8242
3278.5	0.824
3287.88	0.8194
3297.25	0.816
3306.62	0.8175
3316	0.819
3325.37	0.8182
3334.74	0.8165
3344.12	0.8153
3353.49	0.815
3362.86	0.8147
3372.24	0.816
3381.61	0.814
3390.98	0.812
3400.36	0.812
3409.73	0.812
3419.1	0.811
3428.47	0.811
3437.85	0.811
3447.22	0.809
3456.59	0.809
3465.97	0.809
3475.34	0.806
3484.71	0.808
3494.09	0.808
3503.46	0.809
3512.83	0.809
3522.21	0.811
3531.58	0.8084
3540.95	0.808
3550.33	0.808
3559.7	0.8085
3569.07	0.8085
3578.45	0.807
3587.82	0.808
3597.19	0.808
3606.57	0.803
3615.94	0.802
3625.31	0.8025
3634.68	0.802
3644.06	0.8
3653.43	0.803
3662.8	0.8011
3672.18	0.7981
3681.55	0.7994
3690.92	0.799
3700.3	0.7966
3709.67	0.795
3719.04	0.7942
3728.42	0.793
3737.79	0.793
3747.16	0.792
3756.54	0.79
3765.91	0.79
3775.28	0.7897
3784.66	0.7883
3794.03	0.789
