Infrared Spectrum: Dimethyl sulfone
Formula: C 2 H 6 O 2 S
CAS: 67-71-0
State: gas
Origin: Sadtler Research Labs Under US-EPA Contract
1/CM	ABSORBANCE
450	0.205511
462	0.216028
474	0.345076
486	0.358151
498	0.243031
510	0.118815
522	0.046048
534	0.0102329
546	0.00369521
558	0.00568494
570	0.00511645
582	0.00397946
594	0.00739042
606	0.00227398
618	0.00170548
630	0.00341096
642	0.00625343
654	0.0193288
666	0.0443425
678	0.0821474
690	0.0710618
702	0.0778837
714	0.0912433
726	0.187603
738	0.268329
750	0.257528
762	0.19073
774	0.0520172
786	0.0139281
798	0.0127911
810	0.0105171
822	0.00938015
834	0.0105171
846	0.0110856
858	0.0153493
870	0.0210343
882	0.0224555
894	0.0363836
906	0.108298
918	0.276572
930	0.391124
942	0.333706
954	0.316367
966	0.103182
978	0.051733
990	0.0292774
1002	0.0170548
1014	0.0116541
1026	0.00938015
1038	0.0116541
1050	0.0122226
1062	0.0122226
1074	0.0090959
1086	0.0096644
1098	0.0133596
1110	0.0227398
1122	0.0852741
1134	0.360425
1146	0.771446
1158	1.16797
1170	0.681056
1182	0.662864
1194	0.133312
1206	0.0355309
1218	0.0270035
1230	0.0258665
1242	0.0213185
1254	0.023024
1266	0.0270035
1278	0.0324042
1290	0.0770309
1302	0.174812
1314	0.486915
1326	1.1188
1338	1.60344
1350	1.88029
1362	1.06394
1374	0.864679
1386	0.123647
1398	0.0497432
1410	0.0554282
1422	0.0577021
1434	0.0659453
1446	0.0352466
1458	0.0341096
1470	0.0167706
1482	0.00994865
1494	0.00852741
1506	0.0162021
1518	0.0190445
1530	0.0153493
1542	0.0235925
1554	0.0153493
1566	0.0116541
1578	0.0090959
1590	0.00227398
1602	0.00653768
1614	0.0116541
1626	0.0150651
1638	0.0153493
1650	0.0173391
1662	0.00852741
1674	0.0139281
1686	0.0167706
1698	0.0179076
1710	0.00767467
1722	0.00852741
1734	0.0162021
1746	0.00994865
1758	0.00739042
1770	0.00938015
1782	0.00710618
1794	0.0090959
1806	0.00625343
1818	0.00454795
1830	0.00824316
1842	0.00625343
1854	0.00312672
1866	0.00596919
1878	0.00369521
1890	0.00568494
1902	0.00540069
1914	0.00596919
1926	0.00426371
1938	0.00255822
1950	0.00312672
1962	0.00511645
1974	0.00795892
1986	0.00994865
1998	0.0110856
2010	0.0090959
2022	0.00710618
2034	0.00653768
2046	0.00767467
2058	0.00767467
2070	0.00710618
2082	0.00511645
2094	0.00511645
2106	0.00397946
2118	0.00397946
2130	0.00397946
2142	0.00426371
2154	0.00397946
2166	0.00341096
2178	0.00312672
2190	0.00227398
2202	0.00312672
2214	0.00369521
2226	0.00397946
2238	0.00511645
2250	0.00511645
2262	0.00511645
2274	0.00596919
2286	0.0090959
2298	0.0130754
2310	0.0150651
2322	0.0147808
2334	0.0116541
2346	0.0090959
2358	0.00397946
2370	0.00369521
2382	0.00369521
2394	0.00312672
2406	0.00312672
2418	0.00255822
2430	0.00227398
2442	0.00170548
2454	0.00312672
2466	0.00454795
2478	0.00795892
2490	0.0116541
2502	0.0139281
2514	0.0090959
2526	0.00568494
2538	0.00142124
2550	0.00142124
2562	0.00113699
2574	0.00142124
2586	0.00142124
2598	0.00198973
2610	0.00227398
2622	0.00341096
2634	0.00170548
2646	0.000284247
2658	0
2670	0
2682	0.000568494
2694	0.00142124
2706	0.00170548
2718	0.00227398
2730	0.00142124
2742	0.00227398
2754	0.00255822
2766	0.00255822
2778	0.00369521
2790	0.00369521
2802	0.00426371
2814	0.00568494
2826	0.00625343
2838	0.00653768
2850	0.00625343
2862	0.00625343
2874	0.00625343
2886	0.00596919
2898	0.00625343
2910	0.00739042
2922	0.0156336
2934	0.02075
2946	0.0429213
2958	0.0227398
2970	0.0156336
2982	0.00994865
2994	0.0116541
3006	0.02075
3018	0.027572
3030	0.0352466
3042	0.02075
3054	0.0147808
3066	0.00198973
3078	0.00426371
3090	0.00568494
3102	0.00824316
3114	0.00994865
3126	0.0110856
3138	0.0113699
3150	0.0122226
3162	0.0127911
3174	0.0127911
3186	0.0133596
3198	0.0136439
3210	0.0139281
3222	0.0150651
3234	0.0147808
3246	0.0147808
3258	0.0147808
3270	0.0147808
3282	0.0159178
3294	0.0159178
3306	0.0170548
3318	0.0173391
3330	0.0176233
3342	0.0167706
3354	0.0170548
3366	0.0167706
3378	0.0173391
3390	0.0179076
3402	0.0181918
3414	0.0179076
3426	0.0181918
3438	0.0173391
3450	0.0190445
3462	0.0179076
3474	0.0193288
3486	0.0193288
3498	0.0193288
3510	0.02075
3522	0.0198973
3534	0.0198973
3546	0.0181918
3558	0.0201815
3570	0.02075
3582	0.0216028
3594	0.0201815
3606	0.0201815
3618	0.0224555
3630	0.0227398
3642	0.023024
3654	0.0227398
3666	0.023024
3678	0.021887
3690	0.0238767
3702	0.0233083
3714	0.0238767
3726	0.0235925
3738	0.023024
3750	0.0250137
3762	0.0255822
3774	0.0258665
3786	0.025298
3798	0.025298
3810	0.0267192
3822	0.026435
3834	0.0255822
3846	0.0270035
3858	0.0287089
3870	0.0284247
3882	0.027572
3894	0.0278562
3906	0.0298459
3918	0.0298459
3930	0.0312672
3942	0.0324042
3954	0.0309829
3966	0.0315514
