Infrared Spectrum: Vinylsulphonamide
Formula: C 2 H 5 O 2 S
CAS: 2386-58-5
State: gas
Origin: EPA-IR VAPOR PHASE LIBRARY
1/CM	ABSORBANCE
549.8	0.014194
559.445	0.012004
569.09	0.009294
578.734	0.006634
588.379	0.006214
598.024	0.005744
607.669	0.005444
617.313	0.005534
626.958	0.006444
636.603	0.007044
646.248	0.008094
655.893	0.008194
665.537	0.007144
675.182	0.006704
684.827	0.006254
694.472	0.007774
704.116	0.009894
713.761	0.012084
723.406	0.012564
733.051	0.010974
742.695	0.008404
752.34	0.006964
761.985	0.006434
771.63	0.006014
781.275	0.005874
790.919	0.006124
800.564	0.006704
810.209	0.006954
819.854	0.008224
829.498	0.010654
839.143	0.013694
848.788	0.017204
858.433	0.020424
868.078	0.020944
877.722	0.018914
887.367	0.013434
897.012	0.009514
906.657	0.006074
916.301	0.004334
925.946	0.003844
935.591	0.004124
945.236	0.006344
954.88	0.008144
964.525	0.010404
974.17	0.009074
983.815	0.006044
993.46	0.003704
1003.1	0.001954
1012.75	0.001824
1022.39	0.001814
1032.04	0.0012361
1041.68	0.0010557
1051.33	0.001674
1060.97	0.0011725
1070.62	0.001584
1080.26	0.001534
1089.91	0.0005068
1099.55	0.002294
1109.2	0.002234
1118.84	0.001944
1128.49	0.003334
1138.13	0.007894
1147.78	0.018754
1157.42	0.030354
1167.07	0.040314
1176.71	0.029944
1186.36	0.018464
1196	0.007004
1205.64	0.002714
1215.29	0.001664
1224.93	0.0012501
1234.58	0.001684
1244.22	0.0012898
1253.87	0.001824
1263.51	0.001374
1273.16	0.0011657
1282.8	0.001924
1292.45	0.001774
1302.09	0.001714
1311.74	0.001804
1321.38	0.002174
1331.03	0.003334
1340.67	0.005624
1350.32	0.012154
1359.96	0.025474
1369.61	0.042154
1379.25	0.055414
1388.9	0.049074
1398.54	0.033074
1408.18	0.014834
1417.83	0.005234
1427.47	0.002554
1437.12	0.001964
1446.76	0.001654
1456.41	0.001524
1466.05	0.001534
1475.7	0.001494
1485.34	0.001454
1494.99	0.001674
1504.63	0.001904
1514.28	0.002624
1523.92	0.003834
1533.57	0.005894
1543.21	0.007744
1552.86	0.008204
1562.5	0.006564
1572.15	0.004624
1581.79	0.002484
1591.44	0.001584
1601.08	0.001175
1610.73	0.0010943
1620.37	0.0009483
1630.01	0.0008625
1639.66	0.0007286
1649.3	0.0007808
1658.95	0.0006609
1668.59	0.0005521
1678.24	0.0005848
1687.88	0.0006753
1697.53	0.0005113
1707.17	0.0005544
1716.82	0.0005018
1726.46	0.0004929
1736.11	0.0004928
1745.75	0.0004707
1755.4	0.0006205
1765.04	0.0004617
1774.69	0.00038131
1784.33	0.0004669
1793.98	0.0004369
1803.62	0.0004579
1813.27	0.0004764
1822.91	0.0005072
1832.55	0.0004878
1842.2	0.0004507
1851.84	0.0004994
1861.49	0.00040184
1871.13	0.0006708
1880.78	0.0006198
1890.42	0.0006845
1900.07	0.0008171
1909.71	0.0010129
1919.36	0.0009435
1929	0.0010586
1938.65	0.0009492
1948.29	0.0007309
1957.94	0.0006015
1967.58	0.0004465
1977.23	0.00041872
1986.87	0.0005169
1996.52	0.0006173
2006.16	0.00042457
2015.81	0.0005948
2025.45	0.0005496
2035.1	0.000484
2044.74	0.00042773
2054.38	0.00038483
2064.03	0.0004695
2073.67	0.00039677
2083.32	0.00040377
2092.96	0.000611
2102.61	0.0004854
2112.25	0.0006292
2121.9	0.0004681
2131.54	0.000376
2141.19	0.0005519
2150.83	0.00042617
2160.48	0.0004464
2170.12	0.0004237
2179.77	0.0004596
2189.41	0.0004759
2199.06	0.0002586
2208.7	0.0002606
2218.35	0.0005093
2227.99	0.0004773
2237.64	0.00035835
2247.28	0.0004007
2256.92	0.00039268
2266.57	0.0005793
2276.21	0.0005292
2285.86	0.000441
2295.5	0.0004571
2305.15	0.00040343
2314.79	0.000441
2324.44	0.0005448
2334.08	0.0004898
2343.73	0.00041875
2353.37	0.0004516
2363.02	0.0004628
2372.66	0.0002936
2382.31	0.0003587
2391.95	0.00042788
2401.6	0.00040254
2411.24	0.00041156
2420.89	0.0005396
2430.53	0.0005233
2440.18	0.000478
2449.82	0.00040339
2459.47	0.00035748
2469.11	0.00042268
2478.75	0.0004447
2488.4	0.0005033
2498.04	0.0004882
2507.69	0.0006796
2517.33	0.0004947
2526.98	0.0005814
2536.62	0.0008199
2546.27	0.0008091
2555.91	0.000715
2565.56	0.0005329
2575.2	0.0003045
2584.85	0.00035794
2594.49	0.0006068
2604.14	0.000201
2613.78	0.0004812
2623.43	0.0004392
2633.07	0.000337079
2642.72	0.000529
2652.36	0.00041345
2662.01	0.000239
2671.65	0.00042555
2681.29	0.00037298
2690.94	0.0003189
2700.58	0.0004401
2710.23	0.00035364
2719.87	0.00039793
2729.52	0.0003055
2739.16	0.0004895
2748.81	0.00041027
2758.45	0.0002882
2768.1	0.0004444
2777.74	0.000335017
2787.39	0.000234
2797.03	0.0004649
2806.68	0.000207
2816.32	0.0002382
2825.97	0.0002702
2835.61	0.00041465
2845.26	0.000127
2854.9	0.00032856
2864.55	0.00043345
2874.19	0.00037901
2883.84	0.0004579
2893.48	0.0007061
2903.12	0.000265
2912.77	0.0003032
2922.41	0.000196
2932.06	0.00034919
2941.7	0.0004471
2951.35	0.00039321
2960.99	0.00035798
2970.64	0.0005847
2980.28	0.0004078
2989.93	0.0005654
2999.57	0.0006734
3009.22	0.0006075
3018.86	0.0011117
3028.51	0.0011507
3038.15	0.0011521
3047.8	0.0008918
3057.44	0.0007184
3067.09	0.00041517
3076.73	0.000534
3086.38	0.0007142
3096.02	0.0004586
3105.67	0.000868
3115.31	0.0004692
3124.95	0.0005111
3134.6	0.0005679
3144.24	0.0003178
3153.89	0.000232
3163.53	0.0004462
3173.18	0.00038333
3182.82	0.0008171
3192.47	0.0005224
3202.11	0.0005919
3211.76	0.0005518
3221.4	0.00034664
3231.05	0.0004357
3240.69	0.0006058
3250.34	0.0007036
3259.98	0.0010984
3269.63	0.0006368
3279.27	0.0007278
3288.92	0.0005858
3298.56	0.0007327
3308.21	0.0007155
3317.85	0.0007838
3327.49	0.0010567
3337.14	0.001724
3346.78	0.002414
3356.43	0.004514
3366.07	0.006814
3375.72	0.007694
3385.36	0.006574
3395.01	0.004534
3404.65	0.002874
3414.3	0.001804
3423.94	0.001334
3433.59	0.001474
3443.23	0.002664
3452.88	0.004034
3462.52	0.005534
3472.17	0.007044
3481.81	0.006624
3491.46	0.005624
3501.1	0.004054
3510.75	0.002824
3520.39	0.001974
3530.04	0.0009991
3539.68	0.00102
3549.32	0.0008487
3558.97	0.0009218
3568.61	0.0005816
3578.26	0.0006757
3587.9	0.0007353
3597.55	0.0008802
3607.19	0.0007794
3616.84	0.0007419
3626.48	0.0005389
3636.13	0.0006018
3645.77	0.000752
3655.42	0.0007904
3665.06	0.0006732
3674.71	0.00042226
3684.35	0.0004742
3694	0.0005396
3703.64	0.0004856
3713.29	0.0004856
3722.93	0.0004363
3732.58	0.000612
3742.22	0.0002373
3751.86	0.00049
3761.51	0.0003841
3771.15	0.0004594
3780.8	0.0005282
3790.44	0.0006689
3800.09	0.000261
3809.73	0.0004597
3819.38	0.00038054
3829.02	0.00038864
3838.67	0.0006811
3848.31	0.000333435
3857.96	0.000205
3867.6	0.00041204
3877.25	0.000207
3886.89	0.0006351
3896.54	0.0005231
3906.18	0.0004604
3915.83	0.0006527
3925.47	0.0005513
3935.12	0.0002349
3944.76	0.0007731
3954.41	0.0006505
3964.05	0.0005355
3973.69	0.0004732
3983.34	0.00041046
3992.98	0.00037317
