Infrared Spectrum: 2-Chloro-2-propen-1-ol
Formula: C 3 H 5 Cl O
CAS: 5976-47-6
State: gas
Instrument: HP-GC/MS/IRD
Origin: NIST Mass Spectrometry Data Center
1/CM	ABSORBANCE
550	0.0006039
562	0.0002332
574	0.000319
586	0.0004158
598	0.0004961
610	0.0007953
622	0.0014399
634	0.0018843
646	0.0017798
658	0.0008569
670	0.0003773
682	0.0005203
694	0.0009548
706	0.0017963
718	0.0018447
730	0.0013607
742	0.0002959
754	7.04e-05
766	1.1e-05
778	1.98e-05
790	5.5e-05
802	7.7e-05
814	0.0001221
826	0.0001848
838	0.0001991
850	0.0004257
862	0.0012221
874	0.0024156
886	0.0043186
898	0.0042647
910	0.0030096
922	0.0015994
934	0.0009526
946	0.0008833
958	0.001133
970	0.0013651
982	0.0013728
994	0.001287
1006	0.0018084
1018	0.0035706
1030	0.007491
1042	0.0107129
1054	0.009878
1066	0.0054824
1078	0.0017259
1090	0.0007887
1102	0.000583
1114	0.0006325
1126	0.0009757
1138	0.0015323
1150	0.0020471
1162	0.002178
1174	0.0019954
1186	0.0019019
1198	0.0019393
1210	0.0019734
1222	0.0018018
1234	0.0014806
1246	0.0011583
1258	0.0010142
1270	0.0009713
1282	0.0008954
1294	0.0009075
1306	0.0008998
1318	0.0009317
1330	0.0010802
1342	0.0013475
1354	0.0016016
1366	0.0018865
1378	0.0020581
1390	0.0019492
1402	0.0018194
1414	0.0014278
1426	0.0011528
1438	0.0008305
1450	0.0006457
1462	0.0005654
1474	0.0004796
1486	0.0002343
1498	0.0001342
1510	8.03e-05
1522	7.92e-05
1534	8.36e-05
1546	9.35e-05
1558	0.0001089
1570	0.0001914
1582	0.000308
1594	0.0004983
1606	0.0010252
1618	0.0019613
1630	0.0029172
1642	0.003047
1654	0.0022858
1666	0.0010021
1678	0.0003036
1690	9.02e-05
1702	6.38e-05
1714	6.16e-05
1726	6.93e-05
1738	6.82e-05
1750	8.03e-05
1762	0.0001287
1774	0.0002332
1786	0.0002596
1798	0.0002464
1810	0.0001617
1822	6.71e-05
1834	5.28e-05
1846	5.83e-05
1858	2.64e-05
1870	3.3e-05
1882	2.64e-05
1894	3.3e-05
1906	3.08e-05
1918	2.31e-05
1930	1.21e-05
1942	3.74e-05
1954	1.43e-05
1966	3.85e-05
1978	3.85e-05
1990	3.19e-05
2002	2.64e-05
2014	5.72e-05
2026	6.27e-05
2038	5.94e-05
2050	9.13e-05
2062	0.0001111
2074	0.0001386
2086	0.0001243
2098	0.0001001
2110	5.17e-05
2122	5.28e-05
2134	8.36e-05
2146	3.52e-05
2158	4.51e-05
2170	4.51e-05
2182	4.07e-05
2194	4.62e-05
2206	3.19e-05
2218	2.42e-05
2230	3.3e-05
2242	3.19e-05
2254	2.64e-05
2266	5.94e-05
2278	5.72e-05
2290	6.49e-05
2302	4.18e-05
2314	6.38e-05
2326	1.87e-05
2338	5.17e-05
2350	3.96e-05
2362	5.17e-05
2374	3.96e-05
2386	4.51e-05
2398	6.27e-05
2410	6.93e-05
2422	6.05e-05
2434	7.15e-05
2446	3.85e-05
2458	2.64e-05
2470	4.07e-05
2482	5.5e-05
2494	3.41e-05
2506	5.61e-05
2518	6.16e-05
2530	3.52e-05
2542	6.6e-05
2554	4.73e-05
2566	6.49e-05
2578	4.29e-05
2590	4.07e-05
2602	6.05e-05
2614	6.27e-05
2626	4.95e-05
2638	6.38e-05
2650	6.38e-05
2662	9.46e-05
2674	8.8e-05
2686	8.8e-05
2698	0.00011
2710	9.24e-05
2722	0.000121
2734	9.46e-05
2746	0.0001089
2758	0.0001408
2770	0.0001353
2782	0.0001672
2794	0.0001397
2806	0.000198
2818	0.0002761
2830	0.0003388
2842	0.0004785
2854	0.0007788
2866	0.001254
2878	0.0016016
2890	0.0014234
2902	0.0013728
2914	0.0015004
2926	0.0019261
2938	0.001914
2950	0.0016445
2962	0.0011748
2974	0.000792
2986	0.0004774
2998	0.0002893
3010	0.0002145
3022	0.0002046
3034	0.0001925
3046	0.0001771
3058	9.68e-05
3070	7.26e-05
3082	7.59e-05
3094	8.25e-05
3106	0.0002057
3118	0.0002475
3130	0.0001573
3142	4.73e-05
3154	5.17e-05
3166	1.87e-05
3178	4.62e-05
3190	1.43e-05
3202	8.25e-05
3214	7.81e-05
3226	3.19e-05
3238	6.93e-05
3250	5.5e-06
3262	8.03e-05
3274	6.27e-05
3286	8.14e-05
3298	6.93e-05
3310	6.82e-05
3322	5.06e-05
3334	8.36e-05
3346	9.79e-05
3358	7.59e-05
3370	0.0001221
3382	0.0001265
3394	0.0001155
3406	0.0001265
3418	0.0001474
3430	0.0001518
3442	0.0001254
3454	0.0001463
3466	0.000154
3478	0.0001001
3490	8.36e-05
3502	0.0001034
3514	0.0001375
3526	0.0001331
3538	0.0001518
3550	0.0001672
3562	0.0001727
3574	0.0001925
3586	0.0002145
3598	0.0003014
3610	0.0004587
3622	0.000836
3634	0.0013332
3646	0.0018645
3658	0.0019657
3670	0.0015191
3682	0.0008877
3694	0.0004873
3706	0.0003267
3718	0.000264
3730	0.000253
3742	0.0002178
3754	0.0001749
3766	8.69e-05
3778	0.0001837
3790	0.0001408
3802	7.81e-05
3814	9.9e-05
3826	0.0002112
3838	0.0001639
