Infrared Spectrum: 2-Propyn-1-amine, N-methyl-
Formula: C 4 H 7 N
CAS: 35161-71-8
State: gas
Origin: Sadtler Research Labs Under US-EPA Contract
1/CM	ABSORBANCE
450	0.00329885
462	0.00879694
474	0.00355261
486	0.00490599
498	0.00879694
510	0.0126879
522	0.0212311
534	0.0272367
546	0.0469452
558	0.0584489
570	0.0576877
582	0.0508362
594	0.0480448
606	0.0923679
618	0.196493
630	0.503625
642	0.817608
654	0.389519
666	0.238194
678	0.173486
690	0.208504
702	0.279641
714	0.361013
726	0.386558
738	0.306709
750	0.186428
762	0.0905916
774	0.0530354
786	0.0358645
798	0.0306201
810	0.025122
822	0.0208927
834	0.0188627
846	0.0190319
858	0.0241916
870	0.0401784
882	0.0571801
894	0.0971047
906	0.118505
918	0.116729
930	0.0587873
942	0.0385712
954	0.045761
966	0.0616632
978	0.0540505
990	0.0372178
1002	0.0182706
1014	0.0120112
1026	0.0111654
1038	0.0119266
1050	0.0143796
1062	0.0180168
1074	0.0259679
1086	0.0478757
1098	0.101926
1110	0.185666
1122	0.274735
1134	0.243777
1146	0.179322
1158	0.0844168
1170	0.0599715
1182	0.0338344
1194	0.0182706
1206	0.0164097
1218	0.0272367
1230	0.0735052
1242	0.126371
1254	0.13373
1266	0.122988
1278	0.0844168
1290	0.0586181
1302	0.0472836
1314	0.0715598
1326	0.105479
1338	0.137791
1350	0.101503
1362	0.0603944
1374	0.0183552
1386	0.0137029
1398	0.0138721
1410	0.0208082
1422	0.0375562
1434	0.0790033
1446	0.142358
1458	0.155977
1470	0.141089
1482	0.0960897
1494	0.0695297
1506	0.0320581
1518	0.0156484
1530	0.00981198
1542	0.00702064
1554	0.00592102
1566	0.00575185
1578	0.00634395
1590	0.00592102
1602	0.00642854
1614	0.00735898
1626	0.00710522
1638	0.00609019
1650	0.00524433
1662	0.00499057
1674	0.0042293
1686	0.00448306
1698	0.00296051
1710	0.00203006
1722	0.00169172
1734	0.000592102
1746	0
1758	0.00084586
1770	0.00084586
1782	0.00186089
1794	0.00236841
1806	0.00372178
1818	0.00473682
1830	0.00473682
1842	0.00609019
1854	0.00609019
1866	0.00600561
1878	0.00532892
1890	0.0042293
1902	0.00253758
1914	0.00143796
1926	0.00101503
1938	0.00135338
1950	0.00152255
1962	0.00152255
1974	0.00160713
1986	0.00169172
1998	0.00211465
2010	0.00296051
2022	0.00321427
2034	0.00355261
2046	0.00380637
2058	0.00406013
2070	0.00397554
2082	0.00439847
2094	0.0042293
2106	0.00465223
2118	0.00490599
2130	0.00448306
2142	0.00287592
2154	0.00169172
2166	0.00109962
2178	0.00152255
2190	0.00169172
2202	0.00211465
2214	0.00236841
2226	0.00236841
2238	0.00253758
2250	0.00270675
2262	0.00236841
2274	0.00228382
2286	0.0036372
2298	0.00549809
2310	0.00659771
2322	0.00575185
2334	0.00431389
2346	0.00583643
2358	0.00431389
2370	0.00575185
2382	0.00507516
2394	0.00270675
2406	0.00329885
2418	0.00321427
2430	0.00321427
2442	0.00296051
2454	0.0030451
2466	0.00228382
2478	0.00186089
2490	0.00143796
2502	0.00135338
2514	0.00143796
2526	0.00219924
2538	0.00270675
2550	0.00414471
2562	0.00499057
2574	0.00558268
2586	0.00549809
2598	0.00592102
2610	0.00659771
2622	0.00685147
2634	0.0072744
2646	0.0078665
2658	0.00938905
2670	0.0111654
2682	0.0137029
2694	0.0137875
2706	0.0135338
2718	0.0139567
2730	0.0159022
2742	0.0212311
2754	0.0329885
2766	0.0550655
2778	0.097866
2790	0.170948
2802	0.235741
2814	0.235064
2826	0.208504
2838	0.177208
2850	0.185328
2862	0.203768
2874	0.207489
2886	0.210196
2898	0.235064
2910	0.246314
2922	0.257311
2934	0.295374
2946	0.327771
2958	0.319312
2970	0.267799
2982	0.222546
2994	0.164774
3006	0.0795954
3018	0.0372178
3030	0.0241916
3042	0.0183552
3054	0.0168326
3066	0.0151409
3078	0.0139567
3090	0.0125187
3102	0.0113345
3114	0.0102349
3126	0.00947363
3138	0.00981198
3150	0.0090507
3162	0.00862777
3174	0.00710522
3186	0.00676688
3198	0.00651312
3210	0.00718981
3222	0.00634395
3234	0.00625936
3246	0.00617478
3258	0.0078665
3270	0.0141259
3282	0.0278288
3294	0.0716443
3306	0.136268
3318	0.349002
3330	0.297151
3342	0.29106
3354	0.0602252
3366	0.0331577
3378	0.0153101
3390	0.0109962
3402	0.00761274
3414	0.00507516
3426	0.00532892
3438	0.00414471
3450	0.00321427
3462	0.00397554
3474	0.00372178
3486	0.00279134
3498	0.00321427
3510	0.00236841
3522	0.00312968
3534	0.00329885
3546	0.00287592
3558	0.00262217
3570	0.00219924
3582	0.00169172
3594	0.00194548
3606	0.00160713
3618	0.00279134
3630	0.00380637
3642	0.00160713
3654	0.00219924
3666	0.00253758
3678	0.00160713
3690	0.00160713
3702	0.00203006
3714	0.00296051
3726	0.00219924
3738	0.00135338
3750	0.00245299
3762	0.00270675
3774	0.00236841
3786	0.00270675
3798	0.00177631
3810	0.00253758
3822	0.00287592
3834	0.00372178
3846	0.00312968
3858	0.00355261
3870	0.00389096
3882	0.00245299
3894	0.00465223
3906	0.00448306
3918	0.00609019
3930	0.00871236
3942	0.0084586
3954	0.00998115
3966	0.00549809
