Infrared Spectrum: Propane, 1,2,3-trichloro-
Formula: C 3 H 5 Cl 3
CAS: 96-18-4
State: gas
Origin: Sadtler Research Labs Under US-EPA Contract
1/CM	ABSORBANCE
450	0.0532157
462	0.121291
474	0.0278888
486	0.137907
498	0.152254
510	0.180143
522	0.13981
534	0.148594
546	0.086814
558	0.0730526
570	0.0768589
582	0.0807385
594	0.0787621
606	0.0816169
618	0.0904008
630	0.104894
642	0.155987
654	0.243387
666	0.537939
678	0.678628
690	0.32127
702	0.177434
714	0.365117
726	0.705565
738	0.667428
750	0.559167
762	0.65396
774	0.391541
786	0.17048
798	0.134613
810	0.0895956
822	0.0873996
834	0.08718
846	0.0940607
858	0.127513
870	0.185267
882	0.183656
894	0.107017
906	0.239288
918	0.27801
930	0.192147
942	0.140908
954	0.0980867
966	0.0936947
978	0.105553
990	0.176336
1002	0.173116
1014	0.0939143
1026	0.0913524
1038	0.0802993
1050	0.0745166
1062	0.075395
1074	0.0835933
1086	0.0961835
1098	0.0887172
1110	0.0672699
1122	0.0625119
1134	0.0676359
1146	0.0836665
1158	0.0796405
1170	0.104162
1182	0.123999
1194	0.105992
1206	0.131539
1218	0.337228
1230	0.331884
1242	0.201883
1254	0.193172
1266	0.170993
1278	0.26725
1290	0.36314
1302	0.255245
1314	0.0958907
1326	0.0950123
1338	0.190244
1350	0.17824
1362	0.0751022
1374	0.0582664
1386	0.0570952
1398	0.0561436
1410	0.0608284
1422	0.147057
1434	0.403473
1446	0.447465
1458	0.195515
1470	0.0630975
1482	0.0522641
1494	0.0507269
1506	0.0502877
1518	0.0468474
1530	0.0447978
1542	0.0442122
1554	0.0425286
1566	0.0422358
1578	0.0402595
1590	0.0399667
1602	0.0390883
1614	0.0387955
1626	0.0377707
1638	0.0387223
1650	0.0374779
1662	0.0374779
1674	0.0355747
1686	0.0346963
1698	0.0347695
1710	0.0347695
1722	0.0345499
1734	0.0334519
1746	0.0330127
1758	0.0331591
1770	0.03272
1782	0.031622
1794	0.0311828
1806	0.03089
1818	0.0315488
1830	0.03089
1842	0.0289868
1854	0.0292064
1866	0.0291332
1878	0.0278156
1890	0.0276692
1902	0.027596
1914	0.0266444
1926	0.0267908
1938	0.026498
1950	0.0254001
1962	0.0262052
1974	0.0252537
1986	0.0239361
1998	0.0236433
2010	0.0245217
2022	0.0248145
2034	0.0226917
2046	0.0225453
2058	0.0220329
2070	0.0211545
2082	0.0216669
2094	0.0219597
2106	0.0216669
2118	0.0214473
2130	0.0210813
2142	0.0198369
2154	0.0192513
2166	0.0193245
2178	0.0187389
2190	0.0192513
2202	0.0199101
2214	0.0193977
2226	0.0174214
2238	0.0152986
2250	0.0152986
2262	0.0152254
2274	0.0153718
2286	0.0170554
2298	0.0180802
2310	0.0190317
2322	0.0179338
2334	0.0163966
2346	0.0182998
2358	0.0139078
2370	0.0142738
2382	0.0133222
2394	0.0130294
2406	0.0119314
2418	0.0119314
2430	0.012151
2442	0.0112726
2454	0.00944267
2466	0.00907668
2478	0.00944267
2490	0.00951587
2502	0.00834469
2514	0.00841788
2526	0.00841788
2538	0.0069539
2550	0.00512393
2562	0.00402595
2574	0.00387955
2586	0.00329395
2598	0.00256197
2610	0.00212277
2622	0.00278156
2634	0.00256197
2646	0.000439194
2658	0.00124438
2670	0.00395275
2682	0.00380635
2694	0.00241557
2706	0.00461154
2718	0.00666111
2730	0.00856428
2742	0.00548993
2754	0.00248877
2766	0.00212277
2778	0.00285476
2790	0.00256197
2802	0.00073199
2814	0.00204957
2826	0.00278156
2838	0.0075395
2850	0.0245949
2862	0.0251073
2874	0.0251805
2886	0.0211545
2898	0.00929627
2910	0.00849108
2922	0.00973547
2934	0.0162502
2946	0.0496289
2958	0.171725
2970	0.271934
2982	0.204372
2994	0.0975011
3006	0.0426018
3018	0.0477257
3030	0.0275228
3042	0.0108335
3054	0.0075395
3066	0.00578272
3078	0.00468474
3090	0.00468474
3102	0.00270836
3114	0.00278156
3126	0.00278156
3138	0.00285476
3150	0.00373315
3162	0.00248877
3174	0.00409914
3186	0.00453834
3198	0.00322076
3210	0.00182997
3222	0.00190317
3234	0.00139078
3246	0.00234237
3258	0.00153718
3270	0.00431874
3282	0.00241557
3294	0.00285476
3306	0.00256197
3318	0.00219597
3330	0.000951587
3342	0.00468474
3354	0.00285476
3366	0.00468474
3378	0.00446514
3390	0.00256197
3402	0.00270836
3414	0.00270836
3426	0.00241557
3438	0.00329395
3450	0.00307436
3462	0.00263516
3474	0.00395275
3486	0.00439194
3498	0.00307436
3510	0.00468474
3522	0.00234237
3534	0.00446514
3546	0.00365995
3558	0.00519713
3570	0.00424554
3582	0.00556312
3594	0.00688071
3606	0.00512393
3618	0.00900348
3630	0.00805189
3642	0.00570952
3654	0.00805189
3666	0.00468474
3678	0.00541673
3690	0.00907668
3702	0.0076127
3714	0.0102479
3726	0.0106139
3738	0.00966227
3750	0.00841788
3762	0.00856428
3774	0.0102479
3786	0.00907668
3798	0.00995506
3810	0.00563632
3822	0.00878388
3834	0.00636831
3846	0.0073199
3858	0.0109799
3870	0.00797869
3882	0.0124438
3894	0.00812509
3906	0.00980867
3918	0.0103211
3930	0.0133954
3942	0.0108335
3954	0.0134686
3966	0.00592912
