Infrared Spectrum: 1,2,3-TRICHLOROPROPANE
Formula: C3 H5 Cl3
CAS: 96-18-4
Class: COBLENTZ
Instrument: Not specified, most likely a prism, grating, or hybrid spectrometer.
Sampling: TRANSMISSION
Path length: 0.0025 CM
Resolution: 4
Origin: W.T. BOLLETER
MICROMETERS	TRANSMITTANCE
14.507	0.146
14.5769	0.141
14.6468	0.101
14.7168	0.051
14.7867	0.032
14.8566	0.021
14.9265	0.017
14.9964	0.016
15.0664	0.016
15.1363	0.016
15.2062	0.016
15.2761	0.016
15.346	0.019
15.416	0.021
15.4859	0.026
15.5558	0.041
15.6257	0.048
15.6956	0.05
15.7655	0.05
15.8355	0.053
15.9054	0.075
15.9753	0.121
16.0452	0.217
16.1151	0.319
16.1851	0.432
16.255	0.525
16.3249	0.63
16.3948	0.703
16.4647	0.758
16.5347	0.805
16.6046	0.837
16.6745	0.851
16.7444	0.867
16.8143	0.885
16.8843	0.9
16.9542	0.908
17.0241	0.919
17.094	0.925
17.1639	0.923
17.2339	0.919
17.3038	0.914
17.3737	0.912
17.4436	0.912
17.5135	0.914
17.5835	0.91
17.6534	0.908
17.7233	0.908
17.7932	0.908
17.8631	0.908
17.933	0.91
18.003	0.91
18.0729	0.907
18.1428	0.901
18.2127	0.891
18.2826	0.876
18.3526	0.86
18.4225	0.841
18.4924	0.798
18.5623	0.751
18.6322	0.68
18.7022	0.573
18.7721	0.451
18.842	0.325
18.9119	0.176
18.9818	0.107
19.0518	0.048
19.1217	0.039
19.1916	0.037
19.2615	0.044
19.3314	0.073
19.4014	0.157
19.4713	0.253
19.5412	0.362
19.6111	0.494
19.681	0.6
19.751	0.675
19.8209	0.746
19.8908	0.798
19.9607	0.825
20.0306	0.848
20.1005	0.866
20.1705	0.876
20.2404	0.891
20.3103	0.898
20.3802	0.908
20.4501	0.917
20.5201	0.926
20.59	0.935
20.6599	0.939
20.7298	0.942
20.7997	0.95
20.8697	0.953
20.9396	0.957
21.0095	0.96
21.0794	0.962
21.1493	0.964
21.2193	0.967
21.2892	0.967
21.3591	0.967
21.429	0.967
21.4989	0.964
21.5689	0.96
21.6388	0.951
21.7087	0.941
21.7786	0.914
21.8485	0.876
21.9185	0.808
21.9884	0.712
22.0583	0.603
22.1282	0.557
22.1981	0.587
22.268	0.676
22.338	0.764
22.4079	0.839
22.4778	0.882
22.5477	0.903
22.6176	0.914
22.6876	0.923
22.7575	0.932
22.8274	0.932
22.8973	0.93
22.9672	0.925
23.0372	0.919
23.1071	0.907
23.177	0.896
23.2469	0.883
23.3168	0.869
23.3868	0.851
23.4567	0.826
23.5266	0.794
23.5965	0.75
23.6664	0.673
23.7364	0.596
23.8063	0.483
23.8762	0.367
23.9461	0.242
24.016	0.153
24.086	0.087
24.1559	0.057
24.2258	0.048
24.2957	0.055
24.3656	0.117
24.4355	0.182
24.5055	0.271
24.5754	0.396
24.6453	0.496
24.7152	0.56
24.7851	0.639
24.8551	0.701
24.925	0.721
24.9949	0.75
25.0648	0.76
25.1347	0.767
25.2047	0.766
25.2746	0.758
25.3445	0.732
25.4144	0.7
25.4843	0.655
25.5543	0.598
25.6242	0.551
25.6941	0.507
25.764	0.48
25.8339	0.442
25.9039	0.403
25.9738	0.355
26.0437	0.283
26.1136	0.223
26.1835	0.169
26.2535	0.142
26.3234	0.132
26.3933	0.146
26.4632	0.198
26.5331	0.276
26.603	0.332
26.673	0.423
26.7429	0.498
26.8128	0.55
26.8827	0.589
26.9526	0.632
27.0226	0.646
27.0925	0.653
27.1624	0.651
27.2323	0.648
27.3022	0.625
27.3722	0.589
27.4421	0.532
27.512	0.5
27.5819	0.423
27.6518	0.355
27.7218	0.285
27.7917	0.233
27.8616	0.164
27.9315	0.141
28.0014	0.117
28.0714	0.103
28.1413	0.119
28.2112	0.153
28.2811	0.203
28.351	0.273
28.4209	0.342
28.4909	0.408
28.5608	0.487
28.6307	0.562
28.7006	0.628
28.7705	0.673
28.8405	0.732
28.9104	0.762
28.9803	0.792
29.0502	0.817
29.1201	0.837
29.1901	0.85
29.26	0.855
29.3299	0.878
29.3998	0.882
29.4697	0.885
29.5397	0.894
29.6096	0.9
29.6795	0.901
29.7494	0.905
29.8193	0.907
29.8893	0.907
29.9592	0.905
30.0291	0.905
30.099	0.905
30.1689	0.905
30.2389	0.907
30.3088	0.908
30.3787	0.905
30.4486	0.901
30.5185	0.9
30.5884	0.896
30.6584	0.889
30.7283	0.887
30.7982	0.885
30.8681	0.875
30.938	0.869
31.008	0.866
31.0779	0.857
31.1478	0.848
31.2177	0.835
31.2876	0.828
31.3576	0.814
31.4275	0.801
31.4974	0.791
31.5673	0.778
31.6372	0.76
31.7072	0.742
31.7771	0.733
31.847	0.725
31.9169	0.719
31.9868	0.716
32.0568	0.714
32.1267	0.717
32.1966	0.721
32.2665	0.73
32.3364	0.741
32.4064	0.75
32.4763	0.755
32.5462	0.758
32.6161	0.762
32.686	0.764
32.7559	0.767
32.8259	0.769
32.8958	0.766
32.9657	0.758
33.0356	0.75
33.1055	0.732
33.1755	0.723
33.2454	0.712
33.3153	0.7
33.3852	0.685
33.4551	0.673
33.5251	0.657
33.595	0.635
33.6649	0.617
33.7348	0.6
33.8047	0.564
33.8747	0.55
33.9446	0.528
34.0145	0.492
34.0844	0.464
34.1543	0.432
34.2243	0.407
34.2942	0.378
34.3641	0.35
34.434	0.308
34.5039	0.287
34.5739	0.273
34.6438	0.267
34.7137	0.258
34.7836	0.255
34.8535	0.257
34.9234	0.269
34.9934	0.283
35.0633	0.316
35.1332	0.341
35.2031	0.36
35.273	0.378
35.343	0.401
35.4129	0.423
35.4828	0.437
35.5527	0.448
35.6226	0.453
35.6926	0.458
35.7625	0.464
35.8324	0.466
35.9023	0.473
35.9722	0.475
36.0422	0.476
36.1121	0.478
36.182	0.476
36.2519	0.476
36.3218	0.48
36.3918	0.48
36.4617	0.48
36.5316	0.482
36.6015	0.48
36.6714	0.48
36.7414	0.478
36.8113	0.478
36.8812	0.471
36.9511	0.467
37.021	0.458
37.0909	0.45
37.1609	0.451
37.2308	0.451
37.3007	0.45
37.3706	0.451
37.4405	0.453
37.5105	0.455
37.5804	0.458
37.6503	0.457
37.7202	0.458
37.7901	0.46
37.8601	0.457
37.93	0.453
37.9999	0.451
