Infrared Spectrum: Propane, 1,2,3-trichloro-,
Formula: C3 H5 Cl3
CAS: 96-18-4
State: LIQUID (NEAT)
Boiling point: 154-155 C
Class: COBLENTZ III
Instrument: BAIRD (GRATING)
Instrument parameters: NaCl PRISM
Path length: 0.005 CM
Resolution: 2
Origin: WYANDOTTE CHEMICALS CORP.
1/CM	TRANSMITTANCE
626	0.633
635	0.5938
644	0.4774
653	0.2799
662	0.2889
671	0.2368
680	0.499
689	0.559
698	0.3487
707	0.0955
716	0.0543
725	0.081
734	0.0854
743	0.0596
752	0.0415
761	0.1177
770	0.3783
779	0.2747
788	0.5766
797	0.7452
806	0.7668
815	0.8115
824	0.8108
833	0.8158
842	0.8065
851	0.7598
860	0.5775
869	0.1572
878	0.5172
887	0.6842
896	0.5929
905	0.0729
914	0.3781
923	0.2563
932	0.5672
941	0.7154
950	0.7196
959	0.6064
968	0.7127
977	0.6849
986	0.2722
995	0.2091
1004	0.6345
1013	0.7434
1022	0.6966
1031	0.707
1040	0.7588
1049	0.7591
1058	0.7698
1067	0.7523
1076	0.7157
1085	0.6619
1094	0.6021
1103	0.7292
1112	0.8415
1121	0.8432
1130	0.8205
1139	0.774
1148	0.5908
1157	0.7378
1166	0.7414
1175	0.6305
1184	0.4823
1193	0.6606
1202	0.4586
1211	0.4607
1220	0.0832
1229	0.2713
1238	0.5191
1247	0.2749
1256	0.5025
1265	0.4311
1274	0.2667
1283	0.1031
1292	0.0593
1301	0.3016
1310	0.5709
1319	0.6808
1328	0.6385
1337	0.3652
1346	0.2474
1355	0.5844
1364	0.6661
1373	0.6907
1382	0.7002
1391	0.714
1400	0.7139
1409	0.694
1418	0.5154
1427	0.1456
1436	0.0428
1445	0.0283
1454	0.3263
1463	0.6534
1472	0.7418
1481	0.7775
1490	0.7986
1499	0.814
1508	0.8369
1517	0.8532
1526	0.8635
1535	0.8722
1544	0.8757
1553	0.8768
1562	0.8781
1571	0.8787
1580	0.8785
1589	0.8769
1598	0.8745
1607	0.868
1616	0.8641
1625	0.8754
1634	0.8889
1643	0.8951
1652	0.898
1661	0.8988
1670	0.8995
1679	0.8987
1688	0.8967
1697	0.8936
1706	0.8896
1715	0.8888
1724	0.8924
1733	0.8971
1742	0.8993
1751	0.9003
1760	0.9011
1769	0.9015
1778	0.901
1787	0.8994
1796	0.899
1805	0.8991
1814	0.9022
1823	0.9064
1832	0.9067
1841	0.9069
1850	0.9077
1859	0.9077
1868	0.9073
1877	0.9069
1886	0.9065
1895	0.9061
1904	0.9057
1913	0.9051
1922	0.9045
1931	0.9039
1940	0.9033
1949	0.9033
1958	0.9034
1967	0.9036
1976	0.9037
1985	0.9038
1994	0.9038
2003	0.9038
2012	0.9039
2021	0.9041
2030	0.9042
2039	0.9044
2048	0.9046
2057	0.9048
2066	0.905
2075	0.9053
2084	0.9053
2093	0.9052
2102	0.9043
2111	0.903
2120	0.902
2129	0.9015
2138	0.9009
2147	0.9007
2156	0.9014
2165	0.9021
2174	0.9032
2183	0.9055
2192	0.9078
2201	0.907
2210	0.9026
2219	0.8972
2228	0.8915
2237	0.886
2246	0.8806
2255	0.8782
2264	0.8801
2273	0.8838
2282	0.8882
2291	0.8911
2300	0.892
2309	0.8923
2318	0.8926
2327	0.8923
2336	0.8899
2345	0.8819
2354	0.8735
2363	0.8648
2372	0.8608
2381	0.8618
2390	0.8646
2399	0.8699
2408	0.8778
2417	0.8808
2426	0.8813
2435	0.8816
2444	0.8816
2453	0.8815
2462	0.8833
2471	0.8882
2480	0.8899
2489	0.8914
2498	0.8919
2507	0.8924
2516	0.8933
2525	0.8941
2534	0.895
2543	0.8959
2552	0.8972
2561	0.8983
2570	0.8994
2579	0.9004
2588	0.9011
2597	0.9018
2606	0.9018
2615	0.9009
2624	0.9
2633	0.899
2642	0.8981
2651	0.8965
2660	0.8946
2669	0.8927
2678	0.8909
2687	0.8892
2696	0.8882
2705	0.8883
2714	0.8901
2723	0.8959
2732	0.8997
2741	0.9007
2750	0.9005
2759	0.8997
2768	0.8986
2777	0.8973
2786	0.8952
2795	0.8901
2804	0.8756
2813	0.8439
2822	0.8066
2831	0.8032
2840	0.8051
2849	0.8161
2858	0.8267
2867	0.837
2876	0.8407
2885	0.8396
2894	0.83
2903	0.7492
2912	0.669
2921	0.5892
2930	0.5099
2939	0.4311
2948	0.3527
2957	0.351
2966	0.4263
2975	0.5083
2984	0.5897
2993	0.6348
3002	0.6364
3011	0.6386
3020	0.6599
3029	0.714
3038	0.767
3047	0.7939
3056	0.8224
3065	0.8532
3074	0.8665
3083	0.8755
3092	0.8815
3101	0.8867
3110	0.891
3119	0.8954
3128	0.8984
3137	0.9006
3146	0.9029
3155	0.9051
3164	0.9068
3173	0.9082
3182	0.9096
3191	0.9111
3200	0.9125
3209	0.913
3218	0.9134
3227	0.9137
3236	0.914
3245	0.9144
3254	0.9148
3263	0.9151
3272	0.9154
3281	0.9158
3290	0.9159
3299	0.916
3308	0.9161
3317	0.9162
3326	0.9163
3335	0.9164
3344	0.9165
3353	0.9167
3362	0.9168
3371	0.9169
3380	0.917
3389	0.9171
3398	0.9171
3407	0.9169
3416	0.9168
3425	0.9167
3434	0.9166
3443	0.9165
3452	0.9164
3461	0.9163
3470	0.9162
3479	0.916
3488	0.9159
3497	0.9158
3506	0.9158
3515	0.9157
3524	0.9156
3533	0.9155
3542	0.9154
3551	0.9154
3560	0.9153
3569	0.9152
3578	0.9151
3587	0.915
3596	0.9153
3605	0.9163
3614	0.9173
3623	0.9182
3632	0.9193
3641	0.9201
3650	0.9203
3659	0.9204
3668	0.9204
3677	0.9205
3686	0.9205
3695	0.921
3704	0.9215
3713	0.922
3722	0.9224
3731	0.9229
3740	0.9237
3749	0.925
3758	0.9263
3767	0.9275
3776	0.9289
3785	0.9298
3794	0.9304
3803	0.9309
3812	0.9314
3821	0.9319
3830	0.9317
3839	0.9316
3848	0.9314
3857	0.9313
3866	0.9311
3875	0.9312
3884	0.9313
3893	0.9313
3902	0.9314
3911	0.9315
3920	0.9316
3929	0.9317
3938	0.9318
3947	0.9318
3956	0.9318
3965	0.9318
3974	0.9318
3983	0.9318
3992	0.9318
