Infrared Spectrum: Butane, 1,4-dibromo-
Formula: C 4 H 8 Br 2
CAS: 110-52-1
State: gas
Origin: Sadtler Research Labs Under US-EPA Contract
1/CM	ABSORBANCE
450	0
462	0.11319
474	0.140348
486	0.12468
498	0.115089
510	0.119267
522	0.117843
534	0.125345
546	0.133606
558	0.200836
570	0.326181
582	0.30567
594	0.149559
606	0.125914
618	0.120976
630	0.138734
642	0.192195
654	0.242903
666	0.239009
678	0.14633
690	0.128193
702	0.125345
714	0.129618
726	0.143766
738	0.183554
750	0.285254
762	0.267497
774	0.220303
786	0.14766
798	0.154117
810	0.148609
822	0.133701
834	0.129143
846	0.136929
858	0.133321
870	0.138449
882	0.130567
894	0.127149
906	0.13655
918	0.147945
930	0.132276
942	0.122211
954	0.126864
966	0.173013
978	0.163803
990	0.143007
1002	0.151268
1014	0.160289
1026	0.139019
1038	0.126294
1050	0.126579
1062	0.124015
1074	0.121356
1086	0.123066
1098	0.130092
1110	0.146615
1122	0.15744
1134	0.139873
1146	0.140633
1158	0.139778
1170	0.160479
1182	0.155351
1194	0.186118
1206	0.18023
1218	0.269681
1230	0.448677
1242	0.385814
1254	0.33976
1266	0.945687
1278	0.518945
1290	0.363214
1302	0.282975
1314	0.224766
1326	0.155826
1338	0.143387
1350	0.153357
1362	0.150413
1374	0.145096
1386	0.12411
1398	0.120027
1410	0.122306
1422	0.156586
1434	0.26066
1446	0.409174
1458	0.258666
1470	0.177856
1482	0.129618
1494	0.115374
1506	0.116324
1518	0.111955
1530	0.107492
1542	0.115659
1554	0.106638
1566	0.106068
1578	0.106923
1590	0.104359
1602	0.103124
1614	0.107018
1626	0.103979
1638	0.108917
1650	0.105783
1662	0.104549
1674	0.107018
1686	0.110911
1698	0.109012
1710	0.104929
1722	0.106258
1734	0.108442
1746	0.108632
1758	0.106163
1770	0.108062
1782	0.106733
1794	0.109297
1806	0.111101
1818	0.111291
1830	0.111101
1842	0.105783
1854	0.103409
1866	0.103979
1878	0.103694
1890	0.104169
1902	0.103219
1914	0.103409
1926	0.103504
1938	0.103694
1950	0.104169
1962	0.105119
1974	0.104644
1986	0.104359
1998	0.105213
2010	0.105783
2022	0.105498
2034	0.104834
2046	0.105213
2058	0.104834
2070	0.106163
2082	0.106733
2094	0.106638
2106	0.105498
2118	0.105024
2130	0.104169
2142	0.104074
2154	0.104169
2166	0.105119
2178	0.105119
2190	0.105688
2202	0.106923
2214	0.107303
2226	0.107492
2238	0.107018
2250	0.106353
2262	0.105783
2274	0.104834
2286	0.104644
2298	0.104454
2310	0.104549
2322	0.104739
2334	0.104454
2346	0.104264
2358	0.106068
2370	0.105593
2382	0.106638
2394	0.106828
2406	0.106923
2418	0.106353
2430	0.105593
2442	0.106258
2454	0.106163
2466	0.106258
2478	0.106068
2490	0.105119
2502	0.105688
2514	0.104834
2526	0.104359
2538	0.104644
2550	0.104264
2562	0.103884
2574	0.103979
2586	0.103504
2598	0.103219
2610	0.103599
2622	0.104359
2634	0.105403
2646	0.107018
2658	0.109392
2670	0.112715
2682	0.113475
2694	0.110436
2706	0.110151
2718	0.111101
2730	0.110341
2742	0.109582
2754	0.109107
2766	0.107682
2778	0.108537
2790	0.11224
2802	0.115374
2814	0.115944
2826	0.122971
2838	0.149844
2850	0.209477
2862	0.23787
2874	0.233122
2886	0.219923
2898	0.245182
2910	0.276898
2922	0.279366
2934	0.292376
2946	0.400438
2958	0.460451
2970	0.551421
2982	0.459787
2994	0.25971
3006	0.245182
3018	0.289242
3030	0.179661
3042	0.128573
3054	0.114424
3066	0.111101
3078	0.109676
3090	0.108727
3102	0.107113
3114	0.106543
3126	0.105878
3138	0.106068
3150	0.106353
3162	0.106353
3174	0.107492
3186	0.106448
3198	0.106258
3210	0.105783
3222	0.105688
3234	0.104264
3246	0.104739
3258	0.105024
3270	0.104644
3282	0.105308
3294	0.104644
3306	0.103789
3318	0.104739
3330	0.105119
3342	0.104549
3354	0.104169
3366	0.103504
3378	0.104074
3390	0.104264
3402	0.104929
3414	0.103979
3426	0.105403
3438	0.104454
3450	0.105688
3462	0.104834
3474	0.105498
3486	0.104929
3498	0.105024
3510	0.105973
3522	0.104739
3534	0.105593
3546	0.103029
3558	0.103979
3570	0.103694
3582	0.104834
3594	0.106258
3606	0.105308
3618	0.105119
3630	0.107208
3642	0.104074
3654	0.107113
3666	0.107682
3678	0.108347
3690	0.109297
3702	0.108442
3714	0.106923
3726	0.105973
3738	0.106923
3750	0.107967
3762	0.105783
3774	0.105973
3786	0.106638
3798	0.107682
3810	0.110816
3822	0.112525
3834	0.108917
3846	0.109202
3858	0.109676
3870	0.111861
3882	0.108822
3894	0.109866
3906	0.106828
3918	0.113475
3930	0.110436
3942	0.109961
3954	0.107303
3966	0.109392
