Infrared Spectrum: BUTANE, 1,4-DIBROMO-
Formula: C4 H8 Br2
CAS: 110-52-1
State: SOLUTION (10% CCl4 FOR 3800-1333, 10% CS2 FOR 1333-440 CM^-^1)
Class: COBLENTZ III
Instrument: DOW KBr FOREPRISM-GRATING
Instrument parameters: BLAZED AT 3.5, 12.0, 20.0 MICRON AND CHANGED AT 5.0, 7.5, 14.9 MICRON
Sampling: TRANSMISSION
Path length: 0.011 CM, 0.011 CM
Resolution: 4
Origin: DOW CHEMICAL COMPANY
1/CM	TRANSMITTANCE
434.194	0.978
442.904	0.974
451.613	0.977
460.323	0.984
469.033	0.992
477.743	1
486.452	1.009
495.162	1.031
503.872	1.037
512.581	1.049
521.291	1.054
530.001	1.051
538.711	1.039
547.42	1.015
556.13	0.93
564.84	0.6921
573.549	0.744
582.259	0.99
590.969	1.048
599.678	1.061
608.388	1.061
617.098	1.058
625.808	1.042
634.517	0.984
643.227	0.897
651.937	0.77
660.646	0.924
669.356	1.001
678.066	1.016
686.776	1.031
695.485	1.03
704.195	1.027
712.905	1.024
721.614	1.016
730.324	0.962
739.034	0.858
747.744	0.809
756.453	0.819
765.163	0.833
773.873	0.99
782.582	1.001
791.292	1.003
800.002	0.98
808.712	1
817.421	1.016
826.131	1.018
834.841	0.992
843.55	0.932
852.26	0.842
860.97	0.84
869.679	0.842
878.389	0.924
887.099	0.98
895.809	1.013
904.518	1.022
913.228	0.978
921.938	1.004
930.647	1.028
939.357	1.027
948.067	1.025
956.777	0.993
965.486	0.912
974.196	0.9779
982.906	1.007
991.615	1.006
1000.33	0.974
1009.03	0.923
1017.74	0.975
1026.45	1.01
1035.16	1.021
1043.87	1.016
1052.58	1.015
1061.29	1.018
1070	1.018
1078.71	1.01
1087.42	1.019
1096.13	1.01
1104.84	1.016
1113.55	1.028
1122.26	1.027
1130.97	1.027
1139.68	1.009
1148.39	1.022
1157.1	1.024
1165.81	0.963
1174.52	1
1183.23	0.998
1191.94	0.891
1200.65	0.981
1209.36	0.954
1218.07	0.6919
1226.78	0.72
1235.49	0.662
1244.2	0.851
1252.91	0.735
1261.62	0.114
1270.33	0.512
1279.04	0.731
1287.75	0.804
1296.46	0.801
1305.16	0.839
1313.87	0.911
1322.58	0.978
1331.29	0.978
1340	0.963
1348.71	0.989
1357.42	0.983
1366.13	0.957
1374.84	0.984
1383.55	1.01
1392.26	1.004
1400.97	1.001
1409.68	0.987
1418.39	0.954
1427.1	0.836
1435.81	0.552
1444.52	0.617
1453.23	0.74
1461.94	0.86
1470.65	0.941
1479.36	0.938
1488.07	0.92
1496.78	0.879
1505.49	0.818
1514.2	0.768
1522.91	0.723
1531.62	0.647
1540.33	0.539
1549.04	0.489
1557.75	0.563
1566.46	0.639
1575.17	0.695
1583.88	0.71
1592.59	0.782
1601.3	0.89
1610	0.947
1618.71	0.971
1627.42	0.986
1636.13	0.975
1644.84	0.989
1653.55	0.993
1662.26	1.001
1670.97	1.007
1679.68	1.009
1688.39	1.009
1697.1	1.018
1705.81	1.013
1714.52	1.01
1723.23	1.013
1731.94	1.021
1740.65	1.012
1749.36	1.022
1758.07	1.018
1766.78	1.013
1775.49	1.016
1784.2	1.015
1792.91	1.013
1801.62	1.013
1810.33	1.007
1819.04	1.012
1827.75	1.01
1836.46	1.009
1845.17	1.007
1853.88	1.009
1862.59	1.009
1871.3	1.01
1880.01	1.012
1888.72	1.013
1897.43	1.013
1906.13	1.016
1914.84	1.016
1923.55	1.015
1932.26	1.015
1940.97	1.015
1949.68	1.015
1958.39	1.016
1967.1	1.013
1975.81	1.009
1984.52	1.012
1993.23	1.007
2001.94	1.009
2010.65	1.007
2019.36	1.0158
2028.07	1.0142
2036.78	1.016
2045.49	1.0154
2054.2	1.0134
2062.91	1.016
2071.62	1.0176
2080.33	1.0174
2089.04	1.0158
2097.75	1.015
2106.46	1.016
2115.17	1.016
2123.88	1.018
2132.59	1.018
2141.3	1.0216
2150.01	1.016
2158.72	1.015
2167.43	1.015
2176.14	1.0155
2184.85	1.013
2193.56	1.013
2202.27	1.012
2210.97	1.0094
2219.68	1.009
2228.39	1.007
2237.1	1.006
2245.81	1.006
2254.52	1.0034
2263.23	1.001
2271.94	0.9953
2280.65	0.9877
2289.36	0.986
2298.07	0.989
2306.78	0.9916
2315.49	0.9977
2324.2	1
2332.91	1.0058
2341.62	1.015
2350.33	1
2359.04	1.022
2367.75	1.01
2376.46	1.013
2385.17	1.01
2393.88	1.01
2402.59	1.012
2411.3	1.0126
2420.01	1.018
2428.72	1.015
2437.43	1.015
2446.14	1.015
2454.85	1.016
2463.56	1.015
2472.27	1.015
2480.98	1.0158
2489.69	1.0174
2498.4	1.016
2507.1	1.016
2515.81	1.016
2524.52	1.0156
2533.23	1.015
2541.94	1.018
2550.65	1.019
2559.36	1.019
2568.07	1.019
2576.78	1.0184
2585.49	1.018
2594.2	1.018
2602.91	1.016
2611.62	1.0173
2620.33	1.0158
2629.04	1.013
2637.75	1.015
2646.46	1.015
2655.17	1.01
2663.88	1.009
2672.59	1.012
2681.3	1.013
2690.01	1.01
2698.72	1.01
2707.43	1.013
2716.14	1.016
2724.85	1.0141
2733.56	1.015
2742.27	1.013
2750.98	1.015
2759.69	1.0156
2768.4	1.0149
2777.11	1.012
2785.82	1.009
2794.53	1.007
2803.24	1.0027
2811.94	0.9966
2820.65	0.9847
2829.36	0.9428
2838.07	0.8241
2846.78	0.8939
2855.49	0.9076
2864.2	0.8853
2872.91	0.917
2881.62	0.9051
2890.33	0.8555
2899.04	0.8166
2907.75	0.7978
2916.46	0.8209
2925.17	0.8105
2933.88	0.7285
2942.59	0.7002
2951.3	0.6713
2960.01	0.515
2968.72	0.5944
2977.43	0.8506
2986.14	0.927
2994.85	0.9057
3003.56	0.8663
3012.27	0.9094
3020.98	0.9695
3029.69	0.9991
3038.4	1.004
3047.11	1.006
3055.82	1.0124
3064.53	1.009
3073.24	1.009
3081.95	1.0099
3090.66	1.012
3099.37	1.012
3108.07	1.012
3116.78	1.015
3125.49	1.0109
3134.2	1.009
3142.91	1.009
3151.62	1.007
3160.33	1.007
3169.04	1.006
3177.75	1.006
3186.46	1.006
3195.17	1.006
3203.88	1.006
3212.59	1.006
3221.3	1.0037
3230.01	1.0014
3238.72	1
3247.43	1
3256.14	1
3264.85	1
3273.56	1.0005
3282.27	1.001
3290.98	1
3299.69	0.998
3308.4	0.998
3317.11	0.995
3325.82	0.992
3334.53	0.987
3343.24	0.9821
3351.95	0.978
3360.66	0.975
3369.37	0.9748
3378.08	0.9683
3386.79	0.963
3395.5	0.965
3404.21	0.966
3412.91	0.9677
3421.62	0.9697
3430.33	0.9749
3439.04	0.9788
3447.75	0.984
3456.46	0.9894
3465.17	0.993
3473.88	0.996
3482.59	1
3491.3	1.001
3500.01	1.0031
3508.72	1.004
3517.43	1.0042
3526.14	1.0096
3534.85	1.012
3543.56	1.012
3552.27	1.015
3560.98	1.0175
3569.69	1.0157
3578.4	1.015
3587.11	1.018
3595.82	1.0182
3604.53	1.0156
3613.24	1.015
3621.95	1.013
3630.66	1.0159
3639.37	1.018
3648.08	1.019
3656.79	1.015
3665.5	1.013
3674.21	1.0171
3682.92	1.018
3691.63	1.013
3700.34	1.0177
3709.04	1.013
3717.75	1.018
3726.46	1.018
3735.17	1.021
3743.88	1.0183
3752.59	1.018
3761.3	1.018
3770.01	1.021
3778.72	1.0212
3787.43	1.019
