Infrared Spectrum: 1-Iodo-3-methylbutane
Formula: C5 H11 I
CAS: 541-28-6
State: SOLUTION (10% CCl4 FOR 3800-1300, 10% CS2 FOR 1300-400 CM^-^1)
Class: COBLENTZ III
Instrument: DOW KBr FOREPRISM-GRATING
Instrument parameters: BLAZED AT 3.5, 12.0, 20.0 MICRON AND CHANGED AT 5.0, 7.5, 14.9 MICRON
Sampling: TRANSMISSION
Path length: 0.0107 CM, 0.0103 CM
Resolution: 2
Origin: DOW CHEMICAL COMPANY
1/CM	TRANSMITTANCE
3800	0.9093
3791	0.9097
3782	0.908
3773	0.9085
3764	0.9079
3755	0.9072
3746	0.907
3737	0.9081
3728	0.9082
3719	0.9072
3710	0.909
3701	0.9101
3692	0.9092
3683	0.9083
3674	0.9084
3665	0.9084
3656	0.9085
3647	0.9085
3638	0.9087
3629	0.9082
3620	0.9089
3611	0.9084
3602	0.9073
3593	0.907
3584	0.906
3575	0.9042
3566	0.9029
3557	0.9021
3548	0.9033
3539	0.9029
3530	0.9035
3521	0.9023
3512	0.9025
3503	0.9026
3494	0.9027
3485	0.9029
3476	0.9036
3467	0.9046
3458	0.9055
3449	0.9067
3440	0.909
3431	0.9112
3422	0.9134
3413	0.9158
3404	0.9178
3395	0.9191
3386	0.917
3377	0.9134
3368	0.9098
3359	0.9065
3350	0.9033
3341	0.9016
3332	0.9019
3323	0.904
3314	0.9055
3305	0.9071
3296	0.9048
3287	0.9028
3278	0.9035
3269	0.9037
3260	0.903
3251	0.9017
3242	0.9006
3233	0.898
3224	0.8954
3215	0.8927
3206	0.8894
3197	0.8884
3188	0.8872
3179	0.885
3170	0.8842
3161	0.8841
3152	0.8842
3143	0.8833
3134	0.8845
3125	0.8846
3116	0.8845
3107	0.8845
3098	0.8855
3089	0.8857
3080	0.8832
3071	0.885
3062	0.8817
3053	0.8793
3044	0.8809
3035	0.8818
3026	0.8714
3017	0.8575
3008	0.8194
2999	0.7883
2990	0.7888
2981	0.7285
2972	0.482
2963	0.2285
2954	0.062
2945	0.2139
2936	0.395
2927	0.2901
2918	0.3303
2909	0.4425
2900	0.4738
2891	0.4481
2882	0.5715
2873	0.4798
2864	0.3179
2855	0.3856
2846	0.6586
2837	0.7614
2828	0.7642
2819	0.709
2810	0.7983
2801	0.8192
2792	0.8316
2783	0.8418
2774	0.8511
2765	0.8554
2756	0.8596
2747	0.8617
2738	0.861
2729	0.8532
2720	0.8481
2711	0.8524
2702	0.8579
2693	0.8639
2684	0.8628
2675	0.8617
2666	0.8618
2657	0.8631
2648	0.8626
2639	0.8609
2630	0.8598
2621	0.858
2612	0.8551
2603	0.8516
2594	0.8527
2585	0.8564
2576	0.8542
2567	0.8539
2558	0.8538
2549	0.8534
2540	0.8527
2531	0.8521
2522	0.8523
2513	0.8517
2504	0.8518
2495	0.8526
2486	0.8525
2477	0.8521
2468	0.8499
2459	0.8477
2450	0.8447
2441	0.8443
2432	0.8449
2423	0.8465
2414	0.8462
2405	0.8433
2396	0.8386
2387	0.8347
2378	0.8372
2369	0.8411
2360	0.8445
2351	0.8465
2342	0.8461
2333	0.8424
2324	0.8394
2315	0.8315
2306	0.8228
2297	0.8197
2288	0.818
2279	0.8166
2270	0.8157
2261	0.8162
2252	0.8188
2243	0.8206
2234	0.8213
2225	0.8217
2216	0.822
2207	0.8227
2198	0.8244
2189	0.8248
2180	0.8259
2171	0.8277
2162	0.8273
2153	0.8278
2144	0.8284
2135	0.8288
2126	0.8293
2117	0.8299
2108	0.8305
2099	0.8311
2090	0.8317
2081	0.8322
2072	0.8323
2063	0.8315
2054	0.8316
2045	0.8298
2036	0.829
2027	0.8295
2018	0.8314
2009	0.8328
2000	0.8364
1991	0.8336
1982	0.7495
1973	0.7066
1964	0.7545
1955	0.7683
1946	0.7773
1937	0.8002
1928	0.8071
1919	0.8152
1910	0.7917
1901	0.8345
1892	0.8421
1883	0.8431
1874	0.8514
1865	0.8569
1856	0.86
1847	0.8601
1838	0.8601
1829	0.8588
1820	0.8577
1811	0.8581
1802	0.8561
1793	0.8567
1784	0.858
1775	0.8585
1766	0.862
1757	0.8653
1748	0.8651
1739	0.863
1730	0.8647
1721	0.862
1712	0.8684
1703	0.863
1694	0.8705
1685	0.8645
1676	0.8669
1667	0.8653
1658	0.8663
1649	0.8776
1640	0.8751
1631	0.8829
1622	0.8647
1613	0.8565
1604	0.8303
1595	0.8315
1586	0.7773
1577	0.7726
1568	0.7651
1559	0.7788
1550	0.705
1541	0.6807
1532	0.7126
1523	0.7447
1514	0.7599
1505	0.766
1496	0.7751
1487	0.7824
1478	0.7704
1469	0.5148
1460	0.4595
1451	0.5972
1442	0.6863
1433	0.7131
1424	0.6653
1415	0.7847
1406	0.8038
1397	0.8087
1388	0.6977
1379	0.6921
1370	0.7186
1361	0.727
1352	0.7819
1343	0.7247
1334	0.6893
1325	0.7496
1316	0.7688
1307	0.7895
1298	0.7788
1289	0.7206
1280	0.7606
1271	0.7703
1262	0.7595
1253	0.6916
1244	0.4065
1235	0.7159
1226	0.7801
1217	0.7959
1208	0.7961
1199	0.7404
1190	0.3387
1181	0.5104
1172	0.3435
1163	0.6669
1154	0.7377
1145	0.778
1136	0.8073
1127	0.8258
1118	0.8369
1109	0.8235
1100	0.8151
1091	0.8195
1082	0.8328
1073	0.834
1064	0.833
1055	0.8315
1046	0.832
1037	0.828
1028	0.8222
1019	0.8108
1010	0.8038
1001	0.8017
992	0.8273
983	0.8395
974	0.8431
965	0.8433
956	0.8375
947	0.8451
938	0.8398
929	0.8382
920	0.8339
911	0.8143
902	0.8422
893	0.8299
884	0.8417
875	0.8223
866	0.7235
857	0.7841
848	0.7525
839	0.7472
830	0.8073
821	0.823
812	0.8198
803	0.8304
794	0.8322
785	0.8127
776	0.8135
767	0.8148
758	0.8013
749	0.8073
740	0.8034
731	0.6847
722	0.7739
713	0.7919
704	0.7986
695	0.8008
686	0.8045
677	0.8039
668	0.8198
659	0.81
650	0.7949
641	0.7984
632	0.8012
623	0.7954
614	0.7909
605	0.7826
596	0.7114
587	0.6954
578	0.7602
569	0.7882
560	0.7911
551	0.7899
542	0.7884
533	0.7864
524	0.7829
515	0.7629
506	0.7425
497	0.766
488	0.7795
479	0.7867
470	0.777
461	0.7831
452	0.7904
443	0.7929
434	0.7891
425	0.7812
416	0.7619
407	0.7263
398	0.6689
389	0.6083
