Infrared Spectrum: DICHLOROFLUORO ACETONITRILE
Formula: C2 Cl2 F N
CAS: 353-82-2
State: SOLUTION (10% CCl4 FOR 5000-1330, 10% CS2 FOR 1330-625 CM^-^1)
Class: COBLENTZ
Instrument: Not specified, most likely a prism, grating, or hybrid spectrometer.
Sampling: TRANSMISSION
Path length: 0.0118 CM, 0.0118 CM
Resolution: 4
Origin: DOW CHEMICAL COMPANY
MICROMETERS	TRANSMITTANCE
2.021	0.895
2.06216	0.895
2.10331	0.897
2.14447	0.899
2.18563	0.9
2.22678	0.895
2.26794	0.902
2.3091	0.895
2.35025	0.904
2.39141	0.9
2.43257	0.905
2.47372	0.904
2.51488	0.897
2.55604	0.9
2.59719	0.902
2.63835	0.899
2.6795	0.902
2.72066	0.897
2.76182	0.899
2.80297	0.894
2.84413	0.895
2.88529	0.895
2.92644	0.888
2.9676	0.89
3.00876	0.894
3.04991	0.89
3.09107	0.892
3.13223	0.892
3.17338	0.892
3.21454	0.892
3.2557	0.888
3.29685	0.888
3.33801	0.888
3.37917	0.882
3.42032	0.888
3.46148	0.887
3.50264	0.897
3.54379	0.899
3.58495	0.897
3.62611	0.894
3.66726	0.895
3.70842	0.899
3.74958	0.897
3.79073	0.895
3.83189	0.899
3.87305	0.902
3.9142	0.902
3.95536	0.899
3.99651	0.902
4.03767	0.902
4.07883	0.888
4.11998	0.89
4.16114	0.899
4.2023	0.897
4.24345	0.89
4.28461	0.88
4.32577	0.868
4.36692	0.765
4.40808	0.57
4.44924	0.859
4.49039	0.863
4.53155	0.863
4.57271	0.892
4.61386	0.904
4.65502	0.904
4.69618	0.895
4.73733	0.885
4.77849	0.88
4.81965	0.885
4.8608	0.902
4.90196	0.902
4.94312	0.904
4.98427	0.9
5.02543	0.902
5.06659	0.907
5.10774	0.909
5.1489	0.914
5.19005	0.917
5.23121	0.914
5.27237	0.912
5.31352	0.911
5.35468	0.899
5.39584	0.899
5.43699	0.902
5.47815	0.902
5.51931	0.902
5.56046	0.904
5.60162	0.912
5.64278	0.9
5.68393	0.887
5.72509	0.871
5.76625	0.882
5.8074	0.894
5.84856	0.899
5.88972	0.89
5.93087	0.888
5.97203	0.89
6.01319	0.9
6.05434	0.9
6.0955	0.895
6.13666	0.878
6.17781	0.849
6.21897	0.77
6.26013	0.682
6.30128	0.632
6.34244	0.598
6.38359	0.545
6.42475	0.478
6.46591	0.502
6.50706	0.611
6.54822	0.651
6.58938	0.705
6.63053	0.776
6.67169	0.82
6.71285	0.863
6.754	0.868
6.79516	0.873
6.83632	0.871
6.87747	0.888
6.91863	0.892
6.95979	0.897
7.00094	0.895
7.0421	0.897
7.08326	0.9
7.12441	0.9
7.16557	0.9
7.20673	0.904
7.24788	0.902
7.28904	0.902
7.3302	0.9
7.37135	0.902
7.41251	0.897
7.45367	0.885
7.49482	0.882
7.53598	0.887
7.57714	0.888
7.61829	0.899
7.65945	0.897
7.7006	0.88
7.74176	0.87
7.78292	0.868
7.82407	0.87
7.86523	0.868
7.90639	0.871
7.94754	0.871
7.9887	0.863
8.02986	0.87
8.07101	0.868
8.11217	0.863
8.15333	0.849
8.19448	0.832
8.23564	0.822
8.2768	0.835
8.31795	0.837
8.35911	0.852
8.40027	0.87
8.44142	0.876
8.48258	0.878
8.52374	0.878
8.56489	0.878
8.60605	0.876
8.64721	0.864
8.68836	0.846
8.72952	0.813
8.77068	0.784
8.81183	0.735
8.85299	0.649
8.89414	0.516
8.9353	0.302
8.97646	0.08
9.01761	0.01
9.05877	0.047
9.09993	0.104
9.14108	0.071
9.18224	0.119
9.2234	0.348
9.26455	0.519
9.30571	0.6
9.34687	0.659
9.38802	0.726
9.42918	0.764
9.47034	0.779
9.51149	0.788
9.55265	0.781
9.59381	0.764
9.63496	0.74
9.67612	0.688
9.71728	0.605
9.75843	0.476
9.79959	0.287
9.84075	0.056
9.8819	0.008
9.92306	0.041
9.96422	0.169
10.0054	0.165
10.0465	0.135
10.0877	0.215
10.1288	0.271
10.17	0.282
10.2112	0.252
10.2523	0.153
10.2935	0.051
10.3346	0.075
10.3758	0.176
10.4169	0.358
10.4581	0.483
10.4993	0.622
10.5404	0.723
10.5816	0.765
10.6227	0.801
10.6639	0.822
10.705	0.837
10.7462	0.852
10.7873	0.861
10.8285	0.866
10.8697	0.868
10.9108	0.868
10.952	0.87
10.9931	0.87
11.0343	0.868
11.0754	0.861
11.1166	0.852
11.1578	0.837
11.1989	0.813
11.2401	0.782
11.2812	0.75
11.3224	0.717
11.3635	0.675
11.4047	0.644
11.4459	0.603
11.487	0.545
11.5282	0.463
11.5693	0.338
11.6105	0.177
11.6516	0.09
11.6928	0.078
11.7339	0.082
11.7751	0.08
11.8163	0.041
11.8574	0.005
11.8986	0
11.9397	0
11.9809	0
12.022	0
12.0632	0.005
12.1044	0.073
12.1455	0.21
12.1867	0.355
12.2278	0.475
12.269	0.524
12.3101	0.55
12.3513	0.596
12.3925	0.664
12.4336	0.716
12.4748	0.758
12.5159	0.777
12.5571	0.791
12.5982	0.801
12.6394	0.806
12.6805	0.801
12.7217	0.796
12.7629	0.796
12.804	0.803
12.8452	0.818
12.8863	0.829
12.9275	0.834
12.9686	0.834
13.0098	0.83
13.051	0.825
13.0921	0.815
13.1333	0.803
13.1744	0.803
13.2156	0.813
13.2567	0.818
13.2979	0.82
13.3391	0.822
13.3802	0.82
13.4214	0.818
13.4625	0.818
13.5037	0.818
13.5448	0.817
13.586	0.813
13.6271	0.808
13.6683	0.803
13.7095	0.794
13.7506	0.789
13.7918	0.786
13.8329	0.782
13.8741	0.779
13.9152	0.774
13.9564	0.767
13.9976	0.764
14.0387	0.758
14.0799	0.753
14.121	0.748
14.1622	0.741
14.2033	0.74
14.2445	0.729
14.2857	0.724
14.3268	0.717
14.368	0.711
14.4091	0.707
14.4503	0.699
14.4914	0.69
14.5326	0.685
14.5737	0.678
14.6149	0.666
14.6561	0.658
14.6972	0.647
14.7384	0.635
14.7795	0.623
14.8207	0.608
14.8618	0.6
14.903	0.581
14.9442	0.569
14.9853	0.564
15.0265	0.558
15.0676	0.548
15.1088	0.535
15.1499	0.528
15.1911	0.514
15.2323	0.502
15.2734	0.494
15.3146	0.483
15.3557	0.475
15.3969	0.47
15.438	0.464
15.4792	0.461
15.5204	0.458
15.5615	0.456
15.6027	0.451
15.6438	0.449
15.685	0.446
15.7261	0.441
15.7673	0.435
15.8084	0.43
15.8496	0.425
