Infrared Spectrum: Acetonitrile, dichlorofluoro-
Formula: C2 Cl2 F N
CAS: 353-82-2
State: GAS (100 mmHg, N2 ADDED, TOTAL PRESSURE 600 mmHg)
Class: COBLENTZ
Instrument: DOW KBr FOREPRISM-GRATING
Instrument parameters: GRATING CHANGED AT 5.0, 7.5, 15.0 MICRON
Sampling: TRANSMISSION
Path length: 5 CM
Resolution: 2
Origin: DOW CHEMICAL COMPANY
1/CM	TRANSMITTANCE
457	0.8269
466	0.8125
475	0.773
484	0.4933
493	0.2872
502	0.4756
511	0.8232
520	0.8429
529	0.8533
538	0.8592
547	0.8626
556	0.8639
565	0.8655
574	0.8685
583	0.8723
592	0.8375
601	0.7779
610	0.7741
619	0.8146
628	0.8451
637	0.7725
646	0.7378
655	0.7699
664	0.8003
673	0.839
682	0.8606
691	0.866
700	0.8685
709	0.8687
718	0.864
727	0.8626
736	0.8694
745	0.848
754	0.8099
763	0.7892
772	0.7902
781	0.8089
790	0.8451
799	0.8099
808	0.738
817	0.5854
826	0.0836
835	0.0049
844	0.0053
853	0.0065
862	0.0083
871	0.149
880	0.6472
889	0.7923
898	0.8466
907	0.8441
916	0.8378
925	0.8222
934	0.7838
943	0.6966
952	0.3675
961	0.1047
970	0.0373
979	0.0387
988	0.0724
997	0.0585
1006	0.0083
1015	0.0075
1024	0.0097
1033	0.2886
1042	0.8015
1051	0.8477
1060	0.8275
1069	0.7302
1078	0.4892
1087	0.2238
1096	0.1129
1105	0.0072
1114	0.0073
1123	0.0095
1132	0.0342
1141	0.6579
1150	0.7865
1159	0.8404
1168	0.8466
1177	0.8286
1186	0.8123
1195	0.7699
1204	0.733
1213	0.7676
1222	0.783
1231	0.8253
1240	0.8322
1249	0.8212
1258	0.8243
1267	0.8278
1276	0.8183
1285	0.8083
1294	0.8224
1303	0.8413
1312	0.8474
1321	0.836
1330	0.8249
1339	0.8193
1348	0.8204
1357	0.8264
1366	0.8458
1375	0.8701
1384	0.874
1393	0.8663
1402	0.8664
1411	0.8664
1420	0.8661
1429	0.8656
1438	0.8622
1447	0.8502
1456	0.8406
1465	0.8417
1474	0.8561
1483	0.8631
1492	0.8693
1501	0.8735
1510	0.8715
1519	0.8785
1528	0.8792
1537	0.8828
1546	0.8798
1555	0.8819
1564	0.8719
1573	0.8694
1582	0.8678
1591	0.8668
1600	0.8658
1609	0.8649
1618	0.8635
1627	0.8632
1636	0.8683
1645	0.8695
1654	0.872
1663	0.8654
1672	0.8584
1681	0.8483
1690	0.8394
1699	0.8443
1708	0.8531
1717	0.8654
1726	0.8645
1735	0.8691
1744	0.8726
1753	0.8754
1762	0.8753
1771	0.8745
1780	0.8731
1789	0.8726
1798	0.8716
1807	0.87
1816	0.8684
1825	0.8661
1834	0.8637
1843	0.86
1852	0.854
1861	0.8535
1870	0.8608
1879	0.8707
1888	0.878
1897	0.8816
1906	0.8829
1915	0.8826
1924	0.8806
1933	0.8783
1942	0.8791
1951	0.8888
1960	0.8773
1969	0.8701
1978	0.8691
1987	0.8714
1996	0.8752
2005	0.8785
2014	0.879
2023	0.8763
2032	0.8719
2041	0.8704
2050	0.8713
2059	0.8725
2068	0.8701
2077	0.8592
2086	0.8458
2095	0.8313
2104	0.8212
2113	0.8147
2122	0.8093
2131	0.8035
2140	0.816
2149	0.8562
2158	0.8759
2167	0.8758
2176	0.8713
2185	0.8617
2194	0.8384
2203	0.8028
2212	0.7491
2221	0.681
2230	0.6935
2239	0.7067
2248	0.6866
2257	0.1522
2266	0.0865
2275	0.2686
2284	0.8621
2293	0.8656
2302	0.858
2311	0.8441
2320	0.8274
2329	0.8166
2338	0.8159
2347	0.8209
2356	0.8283
2365	0.8389
2374	0.8538
2383	0.8683
2392	0.869
2401	0.8575
2410	0.8478
2419	0.8495
2428	0.8582
2437	0.8715
2446	0.88
2455	0.8841
2464	0.8848
2473	0.8843
2482	0.8838
2491	0.8832
2500	0.8826
2509	0.8818
2518	0.881
2527	0.8802
2536	0.8797
2545	0.8813
2554	0.8829
2563	0.8839
2572	0.8838
2581	0.8834
2590	0.8826
2599	0.8818
2608	0.8809
2617	0.8802
2626	0.8796
2635	0.879
2644	0.8787
2653	0.8786
2662	0.8784
2671	0.8783
2680	0.8781
2689	0.8779
2698	0.8777
2707	0.8775
2716	0.8773
2725	0.8766
2734	0.8752
2743	0.8731
2752	0.8726
2761	0.8759
2770	0.8779
2779	0.8782
2788	0.8787
2797	0.879
2806	0.8785
2815	0.8777
2824	0.8769
2833	0.876
2842	0.8752
2851	0.8743
2860	0.8736
2869	0.873
2878	0.8724
2887	0.8723
2896	0.8722
2905	0.872
2914	0.8716
2923	0.8709
2932	0.8703
2941	0.8696
2950	0.869
2959	0.8689
2968	0.8689
2977	0.869
2986	0.8696
2995	0.8701
3004	0.8707
3013	0.8713
3022	0.8719
3031	0.8724
3040	0.8727
3049	0.8729
3058	0.8731
3067	0.8731
3076	0.8731
3085	0.8728
3094	0.872
3103	0.8715
3112	0.8712
3121	0.8707
3130	0.8702
3139	0.8696
3148	0.869
3157	0.8681
3166	0.8673
3175	0.8664
3184	0.8662
3193	0.866
3202	0.8658
3211	0.8656
3220	0.8657
3229	0.8658
3238	0.866
3247	0.8664
3256	0.867
3265	0.8674
3274	0.8673
3283	0.8672
3292	0.8671
3301	0.8676
3310	0.8683
3319	0.8688
3328	0.8694
3337	0.8693
3346	0.8689
3355	0.8681
3364	0.8662
3373	0.8628
3382	0.8613
3391	0.8664
3400	0.8702
3409	0.8715
3418	0.8728
3427	0.8738
3436	0.8745
3445	0.875
3454	0.8755
3463	0.8759
3472	0.8765
3481	0.877
3490	0.8776
3499	0.8779
3508	0.878
3517	0.8781
3526	0.8787
3535	0.8793
3544	0.8797
3553	0.8797
3562	0.8788
3571	0.8778
3580	0.8768
3589	0.8759
3598	0.8749
3607	0.8739
3616	0.8737
3625	0.8749
3634	0.8761
3643	0.8746
3652	0.8765
3661	0.8764
3670	0.8695
3679	0.8668
3688	0.8725
3697	0.8708
3706	0.8687
3715	0.873
3724	0.8787
3733	0.8768
3742	0.8738
3751	0.8731
3760	0.8736
3769	0.8744
3778	0.877
3787	0.871
