Infrared Spectrum: 3-Pentenenitrile
Formula: C 5 H 7 N
CAS: 4635-87-4
State: gas
Origin: EPA-IR VAPOR PHASE LIBRARY
1/CM	ABSORBANCE
549.8	7.7e-05
559.445	0
569.09	0.00050807
578.734	0.000238
588.379	0.0005451
598.024	0.00043958
607.669	0.000306
617.313	0.000127
626.958	0.0005371
636.603	0.000263
646.248	0.0003258
655.893	0.000282
665.537	0.0005972
675.182	0.0005944
684.827	0.0009346
694.472	0.0009668
704.116	0.0008496
713.761	0.0007721
723.406	0.0007276
733.051	0.0006251
742.695	0.00049993
752.34	0.00046889
761.985	0.0005237
771.63	0.0006626
781.275	0.00046821
790.919	0.00047521
800.564	0.0005744
810.209	0.0006232
819.854	0.0006474
829.498	0.0007851
839.143	0.0009286
848.788	0.0009525
858.433	0.0011816
868.078	0.0011982
877.722	0.001429
887.367	0.0013215
897.012	0.001749
906.657	0.002149
916.301	0.003069
925.946	0.004399
935.591	0.006619
945.236	0.009699
954.88	0.011869
964.525	0.012899
974.17	0.009979
983.815	0.007189
993.46	0.004879
1003.1	0.002969
1012.75	0.002329
1022.39	0.002079
1032.04	0.002049
1041.68	0.002029
1051.33	0.002149
1060.97	0.001899
1070.62	0.001849
1080.26	0.0009436
1089.91	0.0006466
1099.55	0.0011125
1109.2	0.00049268
1118.84	0.0006731
1128.49	0.00044898
1138.13	0.000417109
1147.78	0.000416573
1157.42	0.00050319
1167.07	0.00044276
1176.71	0.0006653
1186.36	0.000346
1196	0.0008959
1205.64	0.0007166
1215.29	0.0005794
1224.93	0.0008994
1234.58	0.0006988
1244.22	0.0009598
1253.87	0.0009572
1263.51	0.001619
1273.16	0.001919
1282.8	0.002119
1292.45	0.001829
1302.09	0.001669
1311.74	0.001739
1321.38	0.001719
1331.03	0.001559
1340.67	0.0013531
1350.32	0.0013567
1359.96	0.0012514
1369.61	0.001529
1379.25	0.001939
1388.9	0.002469
1398.54	0.002989
1408.18	0.003539
1417.83	0.004709
1427.47	0.004929
1437.12	0.005459
1446.76	0.004939
1456.41	0.004029
1466.05	0.003449
1475.7	0.002719
1485.34	0.002149
1494.99	0.001659
1504.63	0.0013716
1514.28	0.001191
1523.92	0.0011324
1533.57	0.0010228
1543.21	0.0009104
1552.86	0.0009412
1562.5	0.0008742
1572.15	0.0008428
1581.79	0.0007877
1591.44	0.0007292
1601.08	0.0006538
1610.73	0.0006399
1620.37	0.0006881
1630.01	0.0007906
1639.66	0.0008662
1649.3	0.000888
1658.95	0.0008539
1668.59	0.0010536
1678.24	0.0011342
1687.88	0.0010245
1697.53	0.001094
1707.17	0.0010135
1716.82	0.0009011
1726.46	0.0007196
1736.11	0.0006254
1745.75	0.0005724
1755.4	0.000595
1765.04	0.0005584
1774.69	0.0005868
1784.33	0.000555
1793.98	0.0005667
1803.62	0.000514
1813.27	0.00049989
1822.91	0.00045738
1832.55	0.00043934
1842.2	0.0005523
1851.84	0.000523
1861.49	0.00050727
1871.13	0.00050386
1880.78	0.0005297
1890.42	0.0005778
1900.07	0.0005114
1909.71	0.00049741
1919.36	0.00044353
1929	0.00044111
1938.65	0.000427
1948.29	0.0004764
1957.94	0.00046697
1967.58	0.00043106
1977.23	0.00049546
1986.87	0.0004817
1996.52	0.0005352
2006.16	0.00053
2015.81	0.00048707
2025.45	0.00042941
2035.1	0.000409031
2044.74	0.000413816
2054.38	0.0003316
2064.03	0.000353
2073.67	0.0003428
2083.32	0.0003695
2092.96	0.0003922
2102.61	0.0003811
2112.25	0.00042235
2121.9	0.0003837
2131.54	0.0003687
2141.19	0.0004603
2150.83	0.0003912
2160.48	0.0003482
2170.12	0.00046539
2179.77	0.00040755
2189.41	0.00040552
2199.06	0.00043728
2208.7	0.000415137
2218.35	0.0005741
2227.99	0.0006685
2237.64	0.0009537
2247.28	0.0012646
2256.92	0.0012467
2266.57	0.0011639
2276.21	0.0006676
2285.86	0.00048684
2295.5	0.00047734
2305.15	0.00043255
2314.79	0.00048374
2324.44	0.0005113
2334.08	0.0005367
2343.73	0.0006205
2353.37	0.0005983
2363.02	0.0006768
2372.66	0.0006011
2382.31	0.0005144
2391.95	0.0005528
2401.6	0.00048869
2411.24	0.0005311
2420.89	0.00049601
2430.53	0.0005388
2440.18	0.000579
2449.82	0.0005199
2459.47	0.00049251
2469.11	0.0005388
2478.75	0.0005619
2488.4	0.00046573
2498.04	0.00043981
2507.69	0.00045413
2517.33	0.00045447
2526.98	0.00044815
2536.62	0.00045756
2546.27	0.0005115
2555.91	0.0005137
2565.56	0.0005211
2575.2	0.00042942
2584.85	0.000573
2594.49	0.0005479
2604.14	0.0005497
2613.78	0.0005725
2623.43	0.0005155
2633.07	0.00050414
2642.72	0.0004157
2652.36	0.00043809
2662.01	0.00047753
2671.65	0.00050032
2681.29	0.0005152
2690.94	0.0006466
2700.58	0.0005363
2710.23	0.0005477
2719.87	0.0006377
2729.52	0.0006782
2739.16	0.0007301
2748.81	0.0008751
2758.45	0.000922
2768.1	0.0007328
2777.74	0.0006658
2787.39	0.0007697
2797.03	0.0007605
2806.68	0.0009198
2816.32	0.0010425
2825.97	0.0012858
2835.61	0.001639
2845.26	0.002039
2854.9	0.002859
2864.55	0.004059
2874.19	0.004659
2883.84	0.005089
2893.48	0.004959
2903.12	0.005259
2912.77	0.006919
2922.41	0.010259
2932.06	0.011959
2941.7	0.012009
2951.35	0.009149
2960.99	0.008619
2970.64	0.008679
2980.28	0.008209
2989.93	0.007329
2999.57	0.006019
3009.22	0.005429
3018.86	0.005439
3028.51	0.005999
3038.15	0.006349
3047.8	0.005959
3057.44	0.004929
3067.09	0.003349
3076.73	0.002609
3086.38	0.001979
3096.02	0.001669
3105.67	0.001439
3115.31	0.0012535
3124.95	0.0010764
3134.6	0.00109
3144.24	0.0009479
3153.89	0.0009099
3163.53	0.0007388
3173.18	0.0008073
3182.82	0.0008939
3192.47	0.000694
3202.11	0.0005951
3211.76	0.0006394
3221.4	0.00050348
3231.05	0.000546
3240.69	0.0003822
3250.34	0.0005671
3259.98	0.0003858
3269.63	0.0005314
3279.27	0.0003742
3288.92	0.000389
3298.56	0.0003849
3308.21	0.00049622
3317.85	0.000279
3327.49	0.0003241
3337.14	0.0003557
3346.78	0.00043719
3356.43	0.000228
3366.07	0.0003744
3375.72	0.000261
3385.36	0.00040467
3395.01	0.00042863
3404.65	0.0003803
3414.3	0.00043284
3423.94	0.000337
3433.59	0.000297
3443.23	0.000397
3452.88	0.0003958
3462.52	0.00040753
3472.17	0.00049828
3481.81	0.0003359
3491.46	0.00044651
3501.1	0.00040265
3510.75	0.00040882
3520.39	0.000329
3530.04	0.0006161
3539.68	0.0005097
3549.32	0.0003938
3558.97	0.00043073
3568.61	0.000382
3578.26	0.00046821
3587.9	0.00039916
3597.55	0.000294
3607.19	0.0003863
3616.84	0.000356
3626.48	0.000241
3636.13	0.0004617
3645.77	0.0003664
3655.42	0.00050282
3665.06	0.00045334
3674.71	0.0005265
3684.35	0.00044008
3694	0.000417781
3703.64	0.0003743
3713.29	0.0003473
3722.93	0.0003336
3732.58	0.0005401
3742.22	0.00040093
3751.86	0.0005701
3761.51	0.00042326
3771.15	0.00043097
3780.8	0.0003234
3790.44	0.0003653
3800.09	0.0004646
3809.73	0.00045442
3819.38	0.0005823
3829.02	0.000410114
3838.67	0.000209
3848.31	0.0006708
3857.96	0.00047106
3867.6	0.00047911
3877.25	0.00045713
3886.89	0.0005211
3896.54	0.00039937
3906.18	0.0003688
3915.83	0.00045745
3925.47	0.00043003
3935.12	0.0003424
3944.76	0.0003908
3954.41	0.00050384
3964.05	0.00040583
3973.69	0.0005238
3983.34	0.0005539
3992.98	0.000408906
