Infrared Spectrum: 1-CHLORO-4-IODOBUTANE
Formula: C4 H8 Cl I
CAS: 10297-05-9
State: LIQUID
Class: COBLENTZ
Instrument: Not specified, most likely a prism, grating, or hybrid spectrometer.
Sampling: TRANSMISSION
Path length: 0.005 CM
Resolution: 4
Origin: ANDERSON PHYSICAL LABORATORY
1/CM	TRANSMITTANCE
673.832	0.53
682.243	0.6159
690.655	0.668
699.066	0.659
707.477	0.5831
715.888	0.3821
724.3	0.215
732.711	0.067
741.122	0.067
749.533	0.058
757.945	0.101
766.356	0.1509
774.767	0.4068
783.178	0.3942
791.59	0.379
800.001	0.44
808.412	0.418
816.824	0.6229
825.235	0.704
833.646	0.716
842.057	0.677
850.469	0.601
858.88	0.62
867.291	0.5421
875.702	0.557
884.114	0.578
892.525	0.691
900.936	0.802
909.347	0.8
917.759	0.755
926.17	0.715
934.581	0.674
942.992	0.718
951.404	0.67
959.815	0.4812
968.226	0.292
976.638	0.416
985.049	0.554
993.46	0.598
1001.87	0.556
1010.28	0.464
1018.69	0.398
1027.11	0.4519
1035.52	0.641
1043.93	0.683
1052.34	0.637
1060.75	0.679
1069.16	0.664
1077.57	0.701
1085.98	0.733
1094.4	0.733
1102.81	0.707
1111.22	0.634
1119.63	0.613
1128.04	0.622
1136.45	0.619
1144.86	0.527
1153.27	0.512
1161.69	0.385
1170.1	0.122
1178.51	0.151
1186.92	0.3409
1195.33	0.259
1203.74	0.043
1212.15	0.011
1220.56	0.064
1228.98	0.037
1237.39	0.104
1245.8	0.188
1254.21	0.187
1262.62	0.341
1271.03	0.328
1279.44	0.031
1287.85	0.029
1296.27	0.056
1304.68	0.061
1313.09	0.065
1321.5	0.103
1329.91	0.3501
1338.32	0.548
1346.73	0.536
1355.14	0.541
1363.56	0.545
1371.97	0.518
1380.38	0.556
1388.79	0.641
1397.2	0.71
1405.61	0.695
1414.02	0.658
1422.43	0.5739
1430.85	0.2688
1439.26	0.037
1447.67	0.029
1456.08	0.05
1464.49	0.139
1472.9	0.296
1481.31	0.6131
1489.72	0.739
1498.14	0.791
1506.55	0.823
1514.96	0.844
1523.37	0.86
1531.78	0.862
1540.19	0.863
1548.6	0.866
1557.01	0.863
1565.43	0.863
1573.84	0.871
1582.25	0.883
1590.66	0.88
1599.07	0.874
1607.48	0.865
1615.89	0.871
1624.3	0.889
1632.72	0.895
1641.13	0.896
1649.54	0.896
1657.95	0.905
1666.36	0.902
1674.77	0.907
1683.18	0.91
1691.6	0.91
1700.01	0.91
1708.42	0.913
1716.83	0.902
1725.24	0.902
1733.65	0.898
1742.06	0.901
1750.47	0.908
1758.89	0.911
1767.3	0.911
1775.71	0.914
1784.12	0.916
1792.53	0.917
1800.94	0.917
1809.35	0.917
1817.76	0.917
1826.18	0.917
1834.59	0.916
1843	0.914
1851.41	0.914
1859.82	0.913
1868.23	0.911
1876.64	0.91
1885.05	0.908
1893.47	0.908
1901.88	0.907
1910.29	0.904
1918.7	0.904
1927.11	0.904
1935.52	0.901
1943.93	0.896
1952.34	0.895
1960.76	0.895
1969.17	0.893
1977.58	0.898
1985.99	0.901
1994.4	0.905
2002.81	0.904
2011.22	0.904
2019.63	0.9035
2028.05	0.8971
2036.46	0.89
2044.87	0.889
2053.28	0.889
2061.69	0.89
2070.1	0.89
2078.51	0.892
2086.92	0.892
2095.34	0.892
2103.75	0.892
2112.16	0.892
2120.57	0.892
2128.98	0.892
2137.39	0.892
2145.8	0.89
2154.21	0.8833
2162.63	0.8775
2171.04	0.8666
2179.45	0.863
2187.86	0.866
2196.27	0.8685
2204.68	0.8717
2213.09	0.872
2221.5	0.8725
2229.92	0.874
2238.33	0.874
2246.74	0.875
2255.15	0.881
2263.56	0.881
2271.97	0.8803
2280.38	0.878
2288.79	0.878
2297.21	0.879
2305.62	0.88
2314.03	0.88
2322.44	0.88
2330.85	0.88
2339.26	0.8785
2347.67	0.878
2356.09	0.8785
2364.5	0.881
2372.91	0.881
2381.32	0.881
2389.73	0.8795
2398.14	0.878
2406.55	0.88
2414.96	0.883
2423.38	0.8862
2431.79	0.888
2440.2	0.89
2448.61	0.892
2457.02	0.895
2465.43	0.896
2473.84	0.896
2482.25	0.898
2490.67	0.898
2499.08	0.898
2507.49	0.8987
2515.9	0.901
2524.31	0.901
2532.72	0.901
2541.13	0.901
2549.54	0.898
2557.96	0.8945
2566.37	0.8925
2574.78	0.89
2583.19	0.889
2591.6	0.887
2600.01	0.887
2608.42	0.887
2616.83	0.886
2625.25	0.8808
2633.66	0.8775
2642.07	0.877
2650.48	0.875
2658.89	0.875
2667.3	0.875
2675.71	0.875
2684.12	0.875
2692.54	0.874
2700.95	0.874
2709.36	0.8713
2717.77	0.871
2726.18	0.8725
2734.59	0.875
2743	0.875
2751.41	0.872
2759.83	0.865
2768.24	0.857
2776.65	0.8375
2785.06	0.823
2793.47	0.79
2801.88	0.7531
2810.29	0.6998
2818.7	0.6026
2827.12	0.454
2835.53	0.3496
2843.94	0.3081
2852.35	0.2951
2860.76	0.2777
2869.17	0.275
2877.58	0.274
2885.99	0.271
2894.41	0.2523
2902.82	0.228
2911.23	0.1851
2919.64	0.1342
2928.05	0.104
2936.46	0.085
2944.87	0.0875
2953.28	0.0999
2961.7	0.1179
2970.11	0.1633
2978.52	0.2485
2986.93	0.3378
2995.34	0.3641
3003.75	0.4354
3012.16	0.5541
3020.57	0.6279
3028.99	0.7246
3037.4	0.7693
3045.81	0.8015
3054.22	0.817
3062.63	0.8337
3071.04	0.843
3079.45	0.8472
3087.87	0.854
3096.28	0.8657
3104.69	0.87
3113.1	0.872
3121.51	0.877
3129.92	0.88
3138.33	0.88
3146.74	0.88
3155.16	0.881
3163.57	0.8815
3171.98	0.8835
3180.39	0.8867
3188.8	0.887
3197.21	0.889
3205.62	0.89
3214.03	0.892
3222.45	0.89
3230.86	0.892
3239.27	0.892
3247.68	0.892
3256.09	0.893
3264.5	0.893
3272.91	0.894
3281.32	0.895
3289.74	0.895
3298.15	0.893
3306.56	0.892
3314.97	0.892
3323.38	0.892
3331.79	0.89
3340.2	0.889
3348.61	0.889
3357.03	0.889
3365.44	0.889
3373.85	0.889
3382.26	0.889
3390.67	0.889
3399.08	0.889
3407.49	0.889
3415.9	0.889
3424.32	0.889
3432.73	0.889
3441.14	0.889
3449.55	0.8875
3457.96	0.887
3466.37	0.889
3474.78	0.889
3483.19	0.889
3491.61	0.89
3500.02	0.89
3508.43	0.892
3516.84	0.892
3525.25	0.892
3533.66	0.8897
3542.07	0.888
3550.48	0.8863
3558.9	0.884
3567.31	0.884
3575.72	0.886
3584.13	0.886
3592.54	0.889
3600.95	0.89
3609.36	0.89
3617.77	0.89
3626.19	0.89
3634.6	0.89
3643.01	0.89
3651.42	0.89
3659.83	0.892
3668.24	0.892
3676.65	0.893
3685.06	0.8945
3693.48	0.896
3701.89	0.8982
3710.3	0.899
3718.71	0.899
3727.12	0.899
3735.53	0.899
3743.94	0.899
3752.36	0.899
3760.77	0.898
3769.18	0.896
3777.59	0.8955
3786	0.895
3794.41	0.892
3802.82	0.889
3811.23	0.887
3819.65	0.887
3828.06	0.887
3836.47	0.889
3844.88	0.889
3853.29	0.889
3861.7	0.889
3870.11	0.889
3878.52	0.889
3886.94	0.889
3895.35	0.889
3903.76	0.889
3912.17	0.888
3920.58	0.886
3928.99	0.883
3937.4	0.8808
3945.81	0.877
3954.23	0.875
3962.64	0.871
3971.05	0.871
