Infrared Spectrum: 1-Iodo-4-chlorobutane
Formula: C 4 H 8 Cl I
CAS: 10297-05-9
State: gas
Origin: EPA-IR VAPOR PHASE LIBRARY
1/CM	ABSORBANCE
501.5	0.001935
513.074	0.002045
524.648	0.0006851
536.222	0.0003283
547.796	0.0003218
559.37	0.0003352
570.944	0.0005171
582.518	0.001665
594.092	0.002915
605.666	0.002365
617.24	0.001168
628.814	0.001445
640.388	0.002655
651.962	0.005695
663.536	0.008085
675.11	0.005065
686.684	0.002955
698.258	0.002405
709.832	0.003055
721.406	0.005025
732.98	0.008045
744.554	0.013935
756.128	0.014055
767.702	0.008525
779.276	0.005595
790.85	0.004165
802.423	0.003195
813.997	0.002375
825.571	0.001835
837.145	0.001895
848.719	0.001975
860.293	0.002125
871.867	0.002555
883.441	0.002375
895.015	0.001485
906.589	0.001555
918.163	0.001705
929.737	0.001755
941.311	0.001665
952.885	0.002375
964.459	0.003525
976.033	0.003085
987.607	0.002575
999.181	0.002645
1010.76	0.002605
1022.33	0.002085
1033.9	0.001275
1045.48	0.0011176
1057.05	0.0010518
1068.63	0.0009523
1080.2	0.0006948
1091.77	0.0008304
1103.35	0.0010578
1114.92	0.001535
1126.49	0.001835
1138.07	0.002975
1149.64	0.004645
1161.22	0.008115
1172.79	0.009385
1184.36	0.009625
1195.94	0.013855
1207.51	0.014385
1219.09	0.012675
1230.66	0.011825
1242.23	0.009235
1253.81	0.008185
1265.38	0.009185
1276.96	0.017035
1288.53	0.015965
1300.1	0.012725
1311.68	0.011795
1323.25	0.007245
1334.83	0.004255
1346.4	0.003915
1357.97	0.003435
1369.55	0.002525
1381.12	0.001685
1392.7	0.001345
1404.27	0.001615
1415.84	0.003055
1427.42	0.006755
1438.99	0.010715
1450.57	0.011335
1462.14	0.007455
1473.71	0.003765
1485.29	0.001835
1496.86	0.0010515
1508.44	0.0007934
1520.01	0.0006523
1531.58	0.0005401
1543.16	0.0004323
1554.73	0.0003665
1566.31	0.0003191
1577.88	0.00027315
1589.45	0.00024322
1601.03	0.00021492
1612.6	0.00019944
1624.18	0.00016553
1635.75	0.0001562
1647.32	0.0001616
1658.9	0.0001205
1670.47	6.2e-05
1682.05	2.5e-05
1693.62	5.7e-05
1705.19	4.1e-05
1716.77	2.6e-05
1728.34	3.1e-05
1739.92	2.6e-05
1751.49	4.9e-05
1763.06	5.3e-05
1774.64	5.6e-05
1786.21	9.57e-05
1797.79	8.59e-05
1809.36	9.7e-05
1820.93	8.92e-05
1832.51	8.69e-05
1844.08	0.000114
1855.66	9.99e-05
1867.23	0.0001111
1878.8	0.0001489
1890.38	0.000181368
1901.95	0.0001333
1913.53	0.0001361
1925.1	0.000177271
1936.67	0.00023791
1948.25	0.00021656
1959.82	0.00020601
1971.4	0.00019038
1982.97	0.00021181
1994.54	0.00021844
2006.12	0.00023797
2017.69	0.00026177
2029.27	0.0002833
2040.84	0.0003214
2052.41	0.0003348
2063.99	0.0003253
2075.56	0.0003147
2087.14	0.0002793
2098.71	0.0003174
2110.28	0.0003173
2121.86	0.0003282
2133.43	0.00027456
2145.01	0.0002974
2156.58	0.000333
2168.15	0.0003736
2179.73	0.0004024
2191.3	0.0004306
2202.88	0.0004174
2214.45	0.000408
2226.02	0.0003884
2237.6	0.0003607
2249.17	0.0003723
2260.74	0.0003305
2272.32	0.0003047
2283.89	0.00035
2295.47	0.0003718
2307.04	0.0003977
2318.61	0.0003718
2330.19	0.0004064
2341.76	0.0003956
2353.34	0.000387
2364.91	0.0004216
2376.48	0.0004213
2388.06	0.0003892
2399.63	0.0003787
2411.21	0.0003763
2422.78	0.0003244
2434.35	0.0002969
2445.93	0.0003288
2457.5	0.0003044
2469.08	0.000346
2480.65	0.00026124
2492.22	0.00026858
2503.8	0.0003095
2515.37	0.0003125
2526.95	0.000325
2538.52	0.0002984
2550.09	0.00026341
2561.67	0.00022679
2573.24	0.0003042
2584.82	0.0002793
2596.39	0.0003355
2607.96	0.0003419
2619.54	0.000372
2631.11	0.0004093
2642.69	0.000437
2654.26	0.0005028
2665.83	0.0004578
2677.41	0.0004602
2688.98	0.0005398
2700.56	0.0005853
2712.13	0.0005078
2723.7	0.0005626
2735.28	0.0006263
2746.85	0.0006637
2758.43	0.0006532
2770	0.0006099
2781.57	0.0007594
2793.15	0.0008853
2804.72	0.0011413
2816.3	0.001455
2827.87	0.002345
2839.44	0.004455
2851.02	0.007355
2862.59	0.008665
2874.17	0.008715
2885.74	0.009245
2897.31	0.010255
2908.89	0.012205
2920.46	0.015065
2932.04	0.018765
2943.61	0.022255
2955.18	0.025585
2966.76	0.027755
2978.33	0.020975
2989.91	0.013995
3001.48	0.011945
3013.05	0.007735
3024.63	0.004425
3036.2	0.002185
3047.78	0.001335
3059.35	0.0008867
3070.92	0.0007111
3082.5	0.0005981
3094.07	0.0004219
3105.65	0.0004521
3117.22	0.0003726
3128.79	0.0003284
3140.37	0.0003228
3151.94	0.0003056
3163.52	0.0003627
3175.09	0.0003453
3186.66	0.0003093
3198.24	0.0003075
3209.81	0.00022026
3221.39	0.00022377
3232.96	0.00024875
3244.53	0.00022116
3256.11	0.00025173
3267.68	0.000175777
3279.26	0.00018872
3290.83	0.00018972
3302.4	0.0001373
3313.98	0.0001431
3325.55	0.0001415
3337.13	0.0001007
3348.7	0.00017152
3360.27	0.0001376
3371.85	0.0001381
3383.42	0.0001436
3395	0.000181507
3406.57	9.68e-05
3418.14	0.0001599
3429.72	7.61e-05
3441.29	0.0001638
3452.86	0.0001113
3464.44	0.0001626
3476.01	1.5e-05
3487.59	0.0001065
3499.16	7.4e-05
3510.73	6.7e-05
3522.31	0.0001379
3533.88	0.000178035
3545.46	0.0001453
3557.03	0.0001027
3568.6	8.1e-05
3580.18	0.0001007
3591.75	9.36e-05
3603.33	0.00024117
3614.9	0.0001211
3626.47	0.00018769
3638.05	0.00019442
3649.62	8.43e-05
3661.2	0.00016857
3672.77	0.00023928
3684.34	0.0001513
3695.92	0.00016517
3707.49	0.00019408
3719.07	0.00020346
3730.64	0.0002094
3742.21	0.0001375
3753.79	0.0001383
3765.36	0.0001556
3776.94	0.00020214
3788.51	0.0001923
3800.08	0.0001569
3811.66	0.0001347
3823.23	0.00019966
3834.81	0.000180345
3846.38	0.00020403
3857.95	0.000162
3869.53	0.0002442
3881.1	0.00025324
3892.68	7.91e-05
3904.25	0.00017077
3915.82	0.00018849
3927.4	0.000177504
3938.97	0.000179636
3950.55	0.00021077
3962.12	0.00019489
3973.69	0.00021784
3985.27	0.0001635
3996.84	0.00026657
