Infrared Spectrum: 1,1,2-TRICHLOROPROPANE
Formula: C3 H5 Cl3
CAS: 598-77-6
Class: COBLENTZ
Instrument: Not specified, most likely a prism, grating, or hybrid spectrometer.
Sampling: TRANSMISSION
Path length: 0.0025 CM
Resolution: 4
Origin: W.T. BOLLETER
MICROMETERS	TRANSMITTANCE
14.509	0.003
14.5792	0.003
14.6495	0.003
14.7197	0.003
14.7899	0.003
14.8601	0.003
14.9304	0.005
15.0006	0.007
15.0708	0.014
15.1411	0.031
15.2113	0.062
15.2815	0.113
15.3517	0.202
15.422	0.278
15.4922	0.333
15.5624	0.378
15.6327	0.413
15.7029	0.44
15.7731	0.456
15.8433	0.456
15.9136	0.417
15.9838	0.326
16.054	0.193
16.1243	0.094
16.1945	0.037
16.2647	0.03
16.335	0.049
16.4052	0.129
16.4754	0.255
16.5456	0.41
16.6159	0.506
16.6861	0.57
16.7563	0.626
16.8266	0.673
16.8968	0.714
16.967	0.747
17.0372	0.772
17.1075	0.783
17.1777	0.788
17.2479	0.793
17.3182	0.797
17.3884	0.793
17.4586	0.79
17.5288	0.776
17.5991	0.77
17.6693	0.76
17.7395	0.744
17.8098	0.722
17.88	0.701
17.9502	0.658
18.0204	0.595
18.0907	0.52
18.1609	0.422
18.2311	0.301
18.3014	0.193
18.3716	0.097
18.4418	0.042
18.512	0.024
18.5823	0.017
18.6525	0.015
18.7227	0.015
18.793	0.017
18.8632	0.035
18.9334	0.078
19.0036	0.213
19.0739	0.291
19.1441	0.435
19.2143	0.545
19.2846	0.639
19.3548	0.71
19.425	0.761
19.4952	0.786
19.5655	0.809
19.6357	0.829
19.7059	0.843
19.7762	0.85
19.8464	0.859
19.9166	0.868
19.9869	0.877
20.0571	0.882
20.1273	0.888
20.1975	0.893
20.2678	0.9
20.338	0.905
20.4082	0.905
20.4785	0.909
20.5487	0.912
20.6189	0.912
20.6891	0.911
20.7594	0.909
20.8296	0.907
20.8998	0.902
20.9701	0.9
21.0403	0.896
21.1105	0.891
21.1807	0.891
21.251	0.889
21.3212	0.888
21.3914	0.882
21.4617	0.882
21.5319	0.877
21.6021	0.868
21.6723	0.856
21.7426	0.849
21.8128	0.833
21.883	0.82
21.9533	0.797
22.0235	0.785
22.0937	0.769
22.1639	0.761
22.2342	0.754
22.3044	0.751
22.3746	0.749
22.4449	0.749
22.5151	0.746
22.5853	0.74
22.6555	0.735
22.7258	0.717
22.796	0.699
22.8662	0.671
22.9365	0.637
23.0067	0.593
23.0769	0.538
23.1472	0.47
23.2174	0.399
23.2876	0.321
23.3578	0.248
23.4281	0.179
23.4983	0.113
23.5685	0.087
23.6388	0.081
23.709	0.085
23.7792	0.097
23.8494	0.147
23.9197	0.223
23.9899	0.307
24.0601	0.396
24.1304	0.477
24.2006	0.545
24.2708	0.598
24.341	0.655
24.4113	0.699
24.4815	0.738
24.5517	0.76
24.622	0.785
24.6922	0.802
24.7624	0.818
24.8326	0.847
24.9029	0.868
24.9731	0.877
25.0433	0.879
25.1136	0.879
25.1838	0.879
25.254	0.868
25.3242	0.865
25.3945	0.852
25.4647	0.849
25.5349	0.831
25.6052	0.822
25.6754	0.813
25.7456	0.808
25.8158	0.811
25.8861	0.818
25.9563	0.824
26.0265	0.836
26.0968	0.849
26.167	0.852
26.2372	0.854
26.3075	0.852
26.3777	0.85
26.4479	0.84
26.5181	0.827
26.5884	0.809
26.6586	0.799
26.7288	0.756
26.7991	0.724
26.8693	0.68
26.9395	0.605
27.0097	0.538
27.08	0.456
27.1502	0.365
27.2204	0.298
27.2907	0.232
27.3609	0.197
27.4311	0.181
27.5013	0.188
27.5716	0.213
27.6418	0.28
27.712	0.353
27.7823	0.428
27.8525	0.507
27.9227	0.589
27.9929	0.66
28.0632	0.714
28.1334	0.754
28.2036	0.781
28.2739	0.801
28.3441	0.806
28.4143	0.813
28.4845	0.809
28.5548	0.802
28.625	0.793
28.6952	0.779
28.7655	0.753
28.8357	0.721
28.9059	0.701
28.9761	0.674
29.0464	0.646
29.1166	0.616
29.1868	0.603
29.2571	0.603
29.3273	0.618
29.3975	0.628
29.4677	0.651
29.538	0.68
29.6082	0.701
29.6784	0.722
29.7487	0.735
29.8189	0.744
29.8891	0.746
29.9594	0.744
30.0296	0.735
30.0998	0.715
30.17	0.708
30.2403	0.696
30.3105	0.662
30.3807	0.625
30.451	0.598
30.5212	0.543
30.5914	0.5
30.6616	0.447
30.7319	0.396
30.8021	0.346
30.8723	0.301
30.9426	0.25
31.0128	0.206
31.083	0.182
31.1532	0.158
31.2235	0.149
31.2937	0.145
31.3639	0.138
31.4342	0.134
31.5044	0.131
31.5746	0.133
31.6448	0.138
31.7151	0.143
31.7853	0.152
31.8555	0.177
31.9258	0.202
31.996	0.234
32.0662	0.293
32.1364	0.328
32.2067	0.369
32.2769	0.41
32.3471	0.458
32.4174	0.497
32.4876	0.525
32.5578	0.55
32.628	0.584
32.6983	0.614
32.7685	0.646
32.8387	0.671
32.909	0.696
32.9792	0.708
33.0494	0.717
33.1197	0.726
33.1899	0.73
33.2601	0.731
33.3303	0.738
33.4006	0.754
33.4708	0.76
33.541	0.77
33.6113	0.776
33.6815	0.781
33.7517	0.785
33.8219	0.785
33.8922	0.783
33.9624	0.783
34.0326	0.786
34.1029	0.785
34.1731	0.783
34.2433	0.779
34.3135	0.779
34.3838	0.781
34.454	0.777
34.5242	0.776
34.5945	0.763
34.6647	0.758
34.7349	0.753
34.8051	0.751
34.8754	0.74
34.9456	0.726
35.0158	0.715
35.0861	0.706
35.1563	0.699
35.2265	0.698
35.2967	0.696
35.367	0.694
35.4372	0.687
35.5074	0.676
35.5777	0.662
35.6479	0.653
35.7181	0.637
35.7883	0.626
35.8586	0.619
35.9288	0.609
35.999	0.605
36.0693	0.6
36.1395	0.58
36.2097	0.566
36.2799	0.557
36.3502	0.55
36.4204	0.538
36.4906	0.531
36.5609	0.511
36.6311	0.499
36.7013	0.488
36.7716	0.477
36.8418	0.46
36.912	0.445
36.9822	0.435
37.0525	0.428
37.1227	0.424
37.1929	0.417
37.2632	0.42
37.3334	0.419
37.4036	0.42
37.4738	0.42
37.5441	0.426
37.6143	0.431
37.6845	0.422
37.7548	0.419
37.825	0.424
37.8952	0.428
37.9654	0.429
