Infrared Spectrum: Propane, 1,1,2-trichloro-
Formula: C 3 H 5 Cl 3
CAS: 598-77-6
State: gas
Origin: Sadtler Research Labs Under US-EPA Contract
1/CM	ABSORBANCE
450	0
462	0.0117662
474	0.0123135
486	0.0106717
498	0.0106717
510	0.0122223
522	0.0300996
534	0.0792624
546	0.0817251
558	0.0271809
570	0.0105805
582	0.0114014
594	0.0124959
606	0.0167828
618	0.0338393
630	0.0372141
642	0.0254479
654	0.0321975
666	0.0832756
678	0.333741
690	0.572258
702	0.352622
714	0.249736
726	0.136908
738	0.110274
750	0.166095
762	0.451221
774	0.903901
786	0.631454
798	0.142928
810	0.0259951
822	0.0213434
834	0.0199752
846	0.0217082
858	0.0217082
870	0.0269072
882	0.0439637
894	0.0744282
906	0.0865592
918	0.0711446
930	0.0498924
942	0.0299172
954	0.0178774
966	0.0143201
978	0.0192455
990	0.0389471
1002	0.0622971
1014	0.145299
1026	0.144934
1038	0.0440549
1050	0.0789887
1062	0.115656
1074	0.0528112
1086	0.0311942
1098	0.0247182
1110	0.0329272
1122	0.0344778
1134	0.0214346
1146	0.013408
1158	0.0141377
1170	0.015141
1182	0.0375789
1194	0.0989639
1206	0.197472
1218	0.205225
1230	0.0995112
1242	0.0923967
1254	0.0840965
1266	0.063118
1278	0.0623883
1290	0.0495276
1302	0.0335656
1314	0.0366668
1326	0.0670401
1338	0.0681346
1350	0.0269072
1362	0.0167828
1374	0.0543618
1386	0.135631
1398	0.0858296
1410	0.0210697
1422	0.021617
1434	0.048433
1446	0.109362
1458	0.120581
1470	0.0612026
1482	0.0179686
1494	0.00975958
1506	0.00875626
1518	0.00757051
1530	0.0066584
1542	0.00684083
1554	0.00693204
1566	0.00702325
1578	0.00738809
1590	0.0066584
1602	0.00729688
1614	0.00784415
1626	0.00638477
1638	0.00674961
1650	0.00656719
1662	0.00757051
1674	0.00757051
1686	0.00738809
1698	0.00647598
1710	0.00638477
1722	0.00611114
1734	0.00601993
1746	0.0074793
1758	0.00939473
1770	0.0103981
1782	0.00975958
1794	0.00866504
1806	0.00793536
1818	0.00601993
1830	0.00547266
1842	0.00501661
1854	0.00483418
1866	0.00474297
1878	0.00529024
1890	0.00501661
1902	0.00565508
1914	0.0058375
1926	0.00629356
1938	0.00620235
1950	0.00538145
1962	0.00547266
1974	0.00538145
1986	0.00556387
1998	0.00519903
2010	0.00519903
2022	0.00538145
2034	0.00538145
2046	0.00574629
2058	0.00501661
2070	0.00538145
2082	0.0058375
2094	0.00565508
2106	0.00538145
2118	0.00456055
2130	0.00529024
2142	0.00556387
2154	0.00565508
2166	0.00538145
2178	0.00529024
2190	0.00529024
2202	0.00556387
2214	0.00547266
2226	0.00601993
2238	0.0058375
2250	0.0058375
2262	0.00656719
2274	0.00693204
2286	0.0074793
2298	0.00875626
2310	0.009942
2322	0.0106717
2334	0.00793536
2346	0.00766172
2358	0.00820899
2370	0.00866504
2382	0.00811778
2394	0.00729688
2406	0.00720567
2418	0.00702325
2430	0.00711446
2442	0.00839141
2454	0.00930352
2466	0.00884747
2478	0.00811778
2490	0.00784415
2502	0.00884747
2514	0.00921231
2526	0.00766172
2538	0.00638477
2550	0.00565508
2562	0.00611114
2574	0.00656719
2586	0.00638477
2598	0.00620235
2610	0.00456055
2622	0.00446934
2634	0.00492539
2646	0.00601993
2658	0.00656719
2670	0.00574629
2682	0.00446934
2694	0.00574629
2706	0.00483418
2718	0.00547266
2730	0.00556387
2742	0.00574629
2754	0.00638477
2766	0.00547266
2778	0.00501661
2790	0.00492539
2802	0.00483418
2814	0.00547266
2826	0.0074793
2838	0.00921231
2850	0.00948594
2862	0.00948594
2874	0.0174213
2886	0.0280018
2898	0.0245358
2910	0.0176037
2922	0.0185158
2934	0.0346602
2946	0.0754315
2958	0.0861944
2970	0.0675874
2982	0.0642125
2994	0.132986
3006	0.166369
3018	0.0817251
3030	0.0174213
3042	0.00802657
3054	0.00674961
3066	0.00611114
3078	0.00757051
3090	0.00775294
3102	0.00629356
3114	0.00574629
3126	0.00574629
3138	0.00574629
3150	0.00647598
3162	0.00620235
3174	0.00601993
3186	0.00611114
3198	0.00656719
3210	0.00656719
3222	0.00966837
3234	0.00684083
3246	0.00620235
3258	0.00611114
3270	0.00510782
3282	0.00556387
3294	0.0066584
3306	0.00601993
3318	0.00647598
3330	0.00565508
3342	0.00638477
3354	0.0058375
3366	0.00519903
3378	0.00611114
3390	0.00601993
3402	0.0041045
3414	0.00529024
3426	0.0066584
3438	0.00529024
3450	0.0058375
3462	0.00574629
3474	0.00492539
3486	0.00656719
3498	0.00592872
3510	0.00684083
3522	0.00601993
3534	0.00611114
3546	0.00820899
3558	0.00656719
3570	0.00775294
3582	0.00875626
3594	0.00784415
3606	0.00592872
3618	0.00693204
3630	0.00674961
3642	0.00565508
3654	0.00620235
3666	0.00538145
3678	0.00720567
3690	0.00793536
3702	0.00638477
3714	0.00556387
3726	0.0100332
3738	0.00875626
3750	0.00939473
3762	0.00684083
3774	0.00729688
3786	0.00711446
3798	0.00574629
3810	0.0074793
3822	0.00620235
3834	0.00656719
3846	0.00775294
3858	0.00766172
3870	0.00647598
3882	0.0074793
3894	0.00948594
3906	0.0121311
3918	0.0121311
3930	0.00611114
3942	0.00948594
3954	0.00483418
3966	0.00848262
