Infrared Spectrum: 1-Propyne, 3-bromo-
Formula: C 3 H 3 Br
CAS: 106-96-7
State: gas
Origin: Sadtler Research Labs Under US-EPA Contract
1/CM	ABSORBANCE
450	0.00122225
462	0.00122225
474	0
486	0.000470095
498	0.0015043
510	0.00159832
522	0.00263253
534	0.00479497
546	0.00573516
558	0.00987199
570	0.0116584
582	0.0141969
594	0.034411
606	0.0809504
618	0.240219
630	0.354264
642	0.623252
654	0.844667
666	0.340819
678	0.115831
690	0.0305562
702	0.00846171
714	0.00667535
726	0.00554712
738	0.00310263
750	0.00291459
762	0.00451291
774	0.0074275
786	0.00752152
798	0.00601722
810	0.0059232
822	0.00460693
834	0.00564114
846	0.00441889
858	0.00723946
870	0.00808563
882	0.00874377
894	0.00930788
906	0.0114703
918	0.0169234
930	0.0292399
942	0.0528387
954	0.112635
966	0.0901642
978	0.0315904
990	0.00695741
1002	0.00648731
1014	0.00770956
1026	0.0111883
1038	0.0139148
1050	0.0177696
1062	0.0202141
1074	0.024633
1086	0.0489839
1098	0.0805743
1110	0.0785059
1122	0.0426846
1134	0.019932
1146	0.0160772
1158	0.0201201
1170	0.0204021
1182	0.01965
1194	0.0579157
1206	0.321827
1218	0.244167
1230	0.175533
1242	0.0452231
1254	0.0787879
1266	0.114045
1278	0.130874
1290	0.0904463
1302	0.0428727
1314	0.0327186
1326	0.0281117
1338	0.0259492
1350	0.0274535
1362	0.024727
1374	0.0161713
1386	0.0122225
1398	0.00921386
1410	0.00987199
1422	0.0159832
1434	0.0129746
1446	0.0222825
1458	0.0161713
1470	0.00846171
1482	0.00470095
1494	0.00244449
1506	0.0034787
1518	0.0015043
1530	0.000752152
1542	0.00300861
1554	0.00188038
1566	0.00188038
1578	0.0034787
1590	0.00244449
1602	0.00282057
1614	0.00206842
1626	0.0015043
1638	0.00225646
1650	0.000470095
1662	0.0015043
1674	0.00122225
1686	0.0034787
1698	0.00282057
1710	0.0034787
1722	0.00413684
1734	0.00629927
1746	0.00300861
1758	0.00404282
1770	0.00460693
1782	0.00357272
1794	0.00319665
1806	0.00244449
1818	0.00225646
1830	0.00188038
1842	0.00188038
1854	0.00178636
1866	0.00131627
1878	0.00188038
1890	0.00178636
1902	0.00225646
1914	0.00225646
1926	0.00235047
1938	0.00253851
1950	0.00263253
1962	0.00300861
1974	0.00357272
1986	0.00310263
1998	0.00300861
2010	0.00329066
2022	0.00357272
2034	0.00376076
2046	0.00366674
2058	0.0039488
2070	0.00470095
2082	0.00413684
2094	0.00385478
2106	0.00460693
2118	0.00714544
2130	0.00827367
2142	0.00676937
2154	0.00404282
2166	0.00385478
2178	0.00300861
2190	0.00300861
2202	0.00263253
2214	0.00263253
2226	0.00253851
2238	0.00263253
2250	0.00300861
2262	0.00385478
2274	0.00404282
2286	0.00404282
2298	0.00169234
2310	0.000282057
2322	0.000752152
2334	0.000752152
2346	0.00188038
2358	0.00122225
2370	0.00300861
2382	0.00291459
2394	0.00432487
2406	0.00488899
2418	0.00686339
2430	0.00714544
2442	0.00357272
2454	0.00357272
2466	0.0034787
2478	0.00310263
2490	0.00357272
2502	0.00357272
2514	0.00404282
2526	0.00441889
2538	0.00413684
2550	0.00366674
2562	0.00404282
2574	0.00366674
2586	0.00385478
2598	0.00376076
2610	0.00272655
2622	0.00282057
2634	0.00432487
2646	0.00554712
2658	0.00573516
2670	0.00564114
2682	0.00817965
2694	0.00723946
2706	0.00582918
2718	0.00526506
2730	0.00479497
2742	0.00535908
2754	0.00554712
2766	0.00526506
2778	0.0054531
2790	0.00601722
2802	0.00582918
2814	0.00714544
2826	0.00846171
2838	0.0108122
2850	0.0137268
2862	0.0190859
2874	0.019932
2886	0.0167354
2898	0.014761
2910	0.0152311
2922	0.0157012
2934	0.0157012
2946	0.0176756
2958	0.0239748
2970	0.0357272
2982	0.0288638
2994	0.0238808
3006	0.0153251
3018	0.0110002
3030	0.00911984
3042	0.00733348
3054	0.00676937
3066	0.00686339
3078	0.00667535
3090	0.00639329
3102	0.0059232
3114	0.0054531
3126	0.00470095
3138	0.00507703
3150	0.00423085
3162	0.00498301
3174	0.00554712
3186	0.00526506
3198	0.00507703
3210	0.00470095
3222	0.00507703
3234	0.00460693
3246	0.00526506
3258	0.00761554
3270	0.0133507
3282	0.0290519
3294	0.0590439
3306	0.129652
3318	0.295032
3330	0.317126
3342	0.32446
3354	0.0518985
3366	0.0256672
3378	0.0130686
3390	0.00827367
3402	0.00639329
3414	0.00460693
3426	0.00441889
3438	0.00441889
3450	0.0039488
3462	0.00404282
3474	0.0039488
3486	0.00291459
3498	0.00451291
3510	0.0039488
3522	0.00357272
3534	0.00357272
3546	0.00310263
3558	0.00282057
3570	0.00329066
3582	0.00338468
3594	0.00103421
3606	0.0015043
3618	0.000752152
3630	0.00122225
3642	0.00272655
3654	0.00357272
3666	0.00329066
3678	0.00517104
3690	0.00423085
3702	0.00300861
3714	0.00385478
3726	0.00366674
3738	0.00460693
3750	0.00329066
3762	0.00451291
3774	0.00441889
3786	0.00479497
3798	0.00460693
3810	0.00573516
3822	0.00582918
3834	0.00648731
3846	0.00695741
3858	0.0089318
3870	0.00930788
3882	0.00968396
3894	0.01006
3906	0.00949592
3918	0.0105301
3930	0.0131627
3942	0.0167354
3954	0.0189918
3966	0.0183337
