Infrared Spectrum: 2-Butanone, 3-methyl-
Formula: C 5 H 10 O
CAS: 563-80-4
State: gas
Origin: Sadtler Research Labs Under US-EPA Contract
1/CM	ABSORBANCE
450	0.00259941
462	0.00768007
474	0.00141786
486	0.00909793
498	0.0103976
510	0.0133515
522	0.0199682
534	0.0184322
546	0.0158328
558	0.0252852
570	0.0399364
582	0.042654
594	0.0548239
606	0.0479709
618	0.0271756
630	0.00968871
642	0.00638037
654	0.00425358
666	0.0060259
678	0.00578959
690	0.00897978
702	0.0199682
714	0.0310748
726	0.0301295
738	0.0157146
750	0.00484435
762	0.00259941
774	0.00271756
786	0.00189048
798	0.00248125
810	0.00319018
822	0.00177232
834	0.00307203
846	0.00342649
858	0.00460804
870	0.00980686
882	0.0133515
894	0.0160691
906	0.0192593
918	0.0326108
930	0.0638037
942	0.103386
954	0.116383
966	0.0966508
978	0.0603772
990	0.0495069
1002	0.0435992
1014	0.033556
1026	0.0237492
1038	0.0203227
1050	0.0209134
1062	0.0339105
1074	0.059432
1086	0.112129
1098	0.175933
1110	0.198028
1122	0.182077
1134	0.250725
1146	0.27471
1158	0.199564
1170	0.12489
1182	0.201454
1194	0.239028
1206	0.180186
1218	0.0825903
1230	0.0677028
1242	0.0673484
1254	0.0606135
1266	0.043481
1278	0.035092
1290	0.0409998
1302	0.0471438
1314	0.0502159
1326	0.0730198
1338	0.145212
1350	0.325871
1362	0.444854
1374	0.387312
1386	0.220477
1398	0.150529
1410	0.104685
1422	0.104449
1434	0.126071
1446	0.159746
1458	0.210552
1470	0.243872
1482	0.177823
1494	0.0928698
1506	0.0421813
1518	0.0288298
1530	0.0232765
1542	0.0224494
1554	0.0217405
1566	0.0179596
1578	0.0181959
1590	0.015242
1602	0.0133515
1614	0.0158328
1626	0.0138241
1638	0.0155965
1650	0.023631
1662	0.028239
1674	0.0491525
1686	0.101023
1698	0.19212
1710	0.508894
1722	0.945713
1734	1.15567
1746	0.8402
1758	0.255687
1770	0.0771552
1782	0.0300114
1794	0.0142968
1806	0.0113429
1818	0.00508066
1830	0.00413542
1842	0.00413542
1854	0.00271756
1866	0.00342649
1878	0.0047262
1890	0.00389911
1902	0.00661668
1914	0.00543513
1926	0.00389911
1938	0.00425358
1950	0.00330834
1962	0.00330834
1974	0.00389911
1986	0.00271756
1998	0.00295387
2010	0.00389911
2022	0.0023631
2034	0.00212679
2046	0.00224494
2058	0.0023631
2070	0.00389911
2082	0.0036628
2094	0.00212679
2106	0.00189048
2118	0.00070893
2130	0.000118155
2142	0.00094524
2154	0.00047262
2166	0.000590775
2178	0.00070893
2190	0.000118155
2202	0.00047262
2214	0.00070893
2226	0.00094524
2238	0.0023631
2250	0.00319018
2262	0.00283572
2274	0.00271756
2286	0.00295387
2298	0.00283572
2310	0.00354465
2322	0.00295387
2334	0.00177232
2346	0.00295387
2358	0.00200863
2370	0.00070893
2382	0.0023631
2394	0.00212679
2406	0.00189048
2418	0.00212679
2430	0.00189048
2442	0.00259941
2454	0.00283572
2466	0.00283572
2478	0.00342649
2490	0.00378096
2502	0.00319018
2514	0.00413542
2526	0.00378096
2538	0.00401727
2550	0.00496251
2562	0.00508066
2574	0.00496251
2586	0.0047262
2598	0.0036628
2610	0.00378096
2622	0.00425358
2634	0.00413542
2646	0.00413542
2658	0.00425358
2670	0.00413542
2682	0.0047262
2694	0.00425358
2706	0.00448989
2718	0.00626221
2730	0.00886162
2742	0.0109884
2754	0.0118155
2766	0.0119337
2778	0.0127607
2790	0.0145331
2802	0.0168962
2814	0.0216224
2826	0.0278846
2838	0.0355647
2850	0.0467894
2862	0.0782186
2874	0.176642
2886	0.279082
2898	0.320791
2910	0.285817
2922	0.279673
2934	0.341586
2946	0.400664
2958	0.489516
2970	0.78514
2982	0.895969
2994	0.566671
3006	0.218941
3018	0.114374
3030	0.0737287
3042	0.050334
3054	0.0420632
3066	0.0381641
3078	0.0341468
3090	0.0303658
3102	0.0262304
3114	0.0217405
3126	0.018314
3138	0.0160691
3150	0.0164235
3162	0.0173688
3174	0.0179596
3186	0.0168962
3198	0.0147694
3210	0.0109884
3222	0.00768007
3234	0.00567144
3246	0.0047262
3258	0.00425358
3270	0.00484435
3282	0.00307203
3294	0.00259941
3306	0.00271756
3318	0.00307203
3330	0.00307203
3342	0.00200863
3354	0.00200863
3366	0.00212679
3378	0.00224494
3390	0.00319018
3402	0.00531697
3414	0.00862531
3426	0.0146512
3438	0.0228039
3450	0.0225676
3462	0.0148875
3474	0.00508066
3486	0.00177232
3498	0.00189048
3510	0.000590775
3522	0.00070893
3534	0.00165417
3546	0.00153601
3558	0.00189048
3570	0.00224494
3582	0.0023631
3594	0.00153601
3606	0.00106339
3618	0.00047262
3630	0.0012997
3642	0.00189048
3654	0.00094524
3666	0.00106339
3678	0.00283572
3690	0.00141786
3702	0.00153601
3714	0.00118155
3726	0.00070893
3738	0.00106339
3750	0.00177232
3762	0.00118155
3774	0.00165417
3786	0.00118155
3798	0.00118155
3810	0.00200863
3822	0.00496251
3834	0.00413542
3846	0.00460804
3858	0.0023631
3870	0.00389911
3882	0.00189048
3894	0.0023631
3906	0.00259941
3918	0.00330834
3930	0.00070893
3942	0.00118155
3954	0.00023631
3966	0.00106339
