Infrared Spectrum: Propane, 1-chloro-2-methyl-
Formula: C 4 H 9 Cl
CAS: 513-36-0
State: gas
Origin: Sadtler Research Labs Under US-EPA Contract
1/CM	ABSORBANCE
450	0.00430947
462	0.0109313
474	0.00672698
486	0.00451969
498	0.0101956
510	0.0137693
522	0.012508
534	0.0117722
546	0.0120875
558	0.00536056
570	0.00483501
582	0.00536056
594	0.00252262
606	0.00472991
618	0.00430947
630	0.00472991
642	0.00830361
654	0.00714741
666	0.00798828
678	0.0386801
690	0.0685311
702	0.0763091
714	0.0562333
726	0.148519
738	0.282218
750	0.294621
762	0.0529749
774	0.0220729
786	0.0304816
798	0.0608581
810	0.0837719
822	0.0562333
834	0.0176583
846	0.0122978
858	0.0152408
870	0.0335298
882	0.0312174
894	0.0209167
906	0.014505
918	0.038575
930	0.0628552
942	0.0839821
954	0.0779909
966	0.0379443
978	0.023124
990	0.00882916
1002	0.00609632
1014	0.00599121
1026	0.0058861
1038	0.00567589
1050	0.00609632
1062	0.00777807
1074	0.0119824
1086	0.0183941
1098	0.0209167
1110	0.0211269
1122	0.0157663
1134	0.0111416
1146	0.0111416
1158	0.0190247
1170	0.0271181
1182	0.0252262
1194	0.0128233
1206	0.0146102
1218	0.0204963
1230	0.0209167
1242	0.0207065
1254	0.104478
1266	0.159135
1278	0.160817
1290	0.0475093
1302	0.034686
1314	0.0650625
1326	0.082931
1338	0.0733661
1350	0.044356
1362	0.0667442
1374	0.100379
1386	0.165442
1398	0.122767
1410	0.040467
1422	0.0193401
1434	0.0629603
1446	0.114043
1458	0.163444
1470	0.191929
1482	0.128969
1494	0.0669544
1506	0.0223882
1518	0.00882916
1530	0.00620143
1542	0.00336349
1554	0.00494012
1566	0.00536056
1578	0.00409925
1590	0.0058861
1602	0.00441458
1614	0.00367881
1626	0.00483501
1638	0.00409925
1650	0.00546567
1662	0.00578099
1674	0.00546567
1686	0.00441458
1698	0.00409925
1710	0.00504523
1722	0.00378392
1734	0.00178685
1746	0.00304816
1758	0.00378392
1770	0.00283794
1782	0.0023124
1794	0.00252262
1806	0.00220729
1818	0.00220729
1830	0.0023124
1842	0.00136642
1854	0.00241751
1866	0.00241751
1878	0.00262773
1890	0.00273283
1902	0.00189196
1914	0.00168174
1926	0.0011562
1938	0.000735763
1950	0.000735763
1962	0.00105109
1974	0.00136642
1986	0.000735763
1998	0.000630654
2010	0.0011562
2022	0.000840872
2034	0.00136642
2046	0.00210218
2058	0.00178685
2070	0.00241751
2082	0.00273283
2094	0.00189196
2106	0.00178685
2118	0.00157664
2130	0.00168174
2142	0.00210218
2154	0.00157664
2166	0.00157664
2178	0.00178685
2190	0.00168174
2202	0.00178685
2214	0.00168174
2226	0.000630654
2238	0.0011562
2250	0.00210218
2262	0.00262773
2274	0.00294305
2286	0.00325838
2298	0.00388903
2310	0.00472991
2322	0.00262773
2334	0.000315327
2346	0.00178685
2358	0.000315327
2370	0.00378392
2382	0.00536056
2394	0.00430947
2406	0.00399414
2418	0.00430947
2430	0.0046248
2442	0.00441458
2454	0.00378392
2466	0.00378392
2478	0.00483501
2490	0.00441458
2502	0.00536056
2514	0.00451969
2526	0.00441458
2538	0.00388903
2550	0.00420436
2562	0.00472991
2574	0.00536056
2586	0.00536056
2598	0.00472991
2610	0.00557078
2622	0.00714741
2634	0.00840872
2646	0.00714741
2658	0.00693719
2670	0.00851383
2682	0.00882916
2694	0.00924959
2706	0.0112467
2718	0.012508
2730	0.0155561
2742	0.0177634
2754	0.0184992
2766	0.0175532
2778	0.0168174
2790	0.0166072
2802	0.0187094
2814	0.0236495
2826	0.028905
2838	0.034686
2850	0.052029
2862	0.114148
2874	0.252051
2886	0.296618
2898	0.274229
2910	0.243643
2922	0.287053
2934	0.377972
2946	0.558654
2958	0.75258
2970	1.05109
2982	0.949029
2994	0.537738
3006	0.184151
3018	0.0584406
3030	0.0223882
3042	0.0151357
3054	0.0180787
3066	0.0194452
3078	0.0209167
3090	0.0222831
3102	0.0179736
3114	0.0166072
3126	0.0141897
3138	0.0129284
3150	0.0146102
3162	0.0161868
3174	0.0174481
3186	0.0165021
3198	0.014505
3210	0.0112467
3222	0.00693719
3234	0.00714741
3246	0.00178685
3258	0.0023124
3270	0.00515034
3282	0.00367881
3294	0.00683208
3306	0.00683208
3318	0.0058861
3330	0.00662187
3342	0.00767296
3354	0.00504523
3366	0.0081985
3378	0.00746274
3390	0.00945981
3402	0.00683208
3414	0.00504523
3426	0.00672698
3438	0.00483501
3450	0.00336349
3462	0.0034686
3474	0.00357371
3486	0.00304816
3498	0.0046248
3510	0.00504523
3522	0.00430947
3534	0.00105109
3546	0.00252262
3558	0.0023124
3570	0.00483501
3582	0.00136642
3594	0.00252262
3606	0.00241751
3618	0.00357371
3630	0.000315327
3642	0.00472991
3654	0.00294305
3666	0.000525545
3678	0.00367881
3690	0.00399414
3702	0.00451969
3714	0.00420436
3726	0.000105109
3738	0.00241751
3750	0.00378392
3762	0.00262773
3774	0.00136642
3786	0.00304816
3798	0
3810	0.00409925
3822	0.00515034
3834	0.00536056
3846	0.00725252
3858	0.00515034
3870	0.00546567
3882	0.00494012
3894	0.00420436
3906	0.00788317
3918	0.00304816
3930	0.00714741
3942	0.00546567
3954	0.00536056
3966	0.00336349
