Infrared Spectrum: ETHANE, 1,2-DIBROMO-1-CHLORO-
Formula: C2 H3 Br2 Cl
CAS: 598-20-9
State: SOLUTION (10% IN CCl4 FOR 3800-1340, AND 10% IN CS2 FOR 1340-400 CM^-^1)
Class: COBLENTZ III
Instrument: DOW KBr FOREPRISM-GRATING
Instrument parameters: BLAZED AT 3.5, 12.0, 20.0 MICRON, CHANGED AT 5.0, 7.5, 14.9 MICRON
Sampling: TRANSMISSION
Path length: 0.011, 0.011 CM
Resolution: 4
Origin: DOW CHEMICAL COMPANY
1/CM	TRANSMITTANCE
381.759	0.589
390.445	0.592
399.131	0.641
407.818	0.805
416.504	0.919
425.19	0.972
433.876	1.005
442.563	1.023
451.249	1.025
459.935	1.002
468.621	1.064
477.308	1.072
485.994	1.074
494.68	1.079
503.366	1.079
512.052	1.079
520.739	1.083
529.425	1.083
538.111	1.074
546.797	1.044
555.484	1.073
564.17	1.053
572.856	0.844
581.542	1.019
590.228	0.991
598.915	0.599
607.601	0.2692
616.287	1.005
624.973	1.023
633.66	1.001
642.346	0.927
651.032	0.46
659.718	0.501
668.405	0.938
677.091	1.002
685.777	0.957
694.463	0.628
703.149	0.826
711.836	0.991
720.522	0.963
729.208	1.014
737.894	0.995
746.581	0.719
755.267	0.878
763.953	1.032
772.639	1.049
781.326	1.042
790.012	1.039
798.698	1.044
807.384	1.044
816.07	1.049
824.757	1.047
833.443	1.028
842.129	0.993
850.815	0.886
859.502	0.871
868.188	0.899
876.874	0.818
885.56	0.764
894.246	0.331
902.933	0.976
911.619	1.032
920.305	1.049
928.991	1.053
937.678	1.053
946.364	1.059
955.05	1.061
963.736	1.065
972.423	1.058
981.109	1.058
989.795	1.054
998.481	1.049
1007.17	1.051
1015.85	1.057
1024.54	1.047
1033.23	1.021
1041.91	0.983
1050.6	1.001
1059.28	1.049
1067.97	1.05
1076.66	1.047
1085.34	1.05
1094.03	1.05
1102.72	1.038
1111.4	1.01
1120.09	0.931
1128.77	0.839
1137.46	0.955
1146.15	0.995
1154.83	0.976
1163.52	0.6279
1172.21	0.929
1180.89	0.841
1189.58	0.858
1198.26	0.964
1206.95	0.956
1215.64	0.711
1224.32	0.604
1233.01	0.961
1241.7	1.005
1250.38	1.006
1259.07	0.982
1267.75	0.938
1276.44	0.925
1285.13	0.87
1293.81	0.961
1302.5	1.004
1311.19	1.012
1319.87	1.01
1328.56	1.02
1337.24	1.024
1345.93	1.021
1354.62	1.01
1363.3	1.012
1371.99	1.017
1380.68	1.02
1389.36	1.025
1398.05	1.021
1406.73	1.008
1415.42	0.955
1424.11	0.5043
1432.79	1.001
1441.48	1.013
1450.17	1.012
1458.85	1.004
1467.54	1.014
1476.22	1.001
1484.91	0.982
1493.6	0.952
1502.28	0.904
1510.97	0.839
1519.65	0.787
1528.34	0.728
1537.03	0.648
1545.71	0.554
1554.4	0.568
1563.09	0.648
1571.77	0.726
1580.46	0.749
1589.14	0.795
1597.83	0.876
1606.52	0.956
1615.2	0.989
1623.89	1.01
1632.58	1.02
1641.26	1.025
1649.95	1.012
1658.63	1.032
1667.32	1.025
1676.01	1.032
1684.69	1.029
1693.38	1.023
1702.07	1.024
1710.75	1.023
1719.44	1.012
1728.12	1.005
1736.81	1.012
1745.5	1.021
1754.18	1.031
1762.87	1.027
1771.56	1.034
1780.24	1.035
1788.93	1.025
1797.61	1.034
1806.3	1.038
1814.99	1.038
1823.67	1.035
1832.36	1.036
1841.05	1.034
1849.73	1.035
1858.42	1.035
1867.1	1.034
1875.79	1.038
1884.48	1.035
1893.16	1.032
1901.85	1.036
1910.54	1.038
1919.22	1.038
1927.91	1.038
1936.59	1.036
1945.28	1.038
1953.97	1.04
1962.65	1.032
1971.34	1.028
1980.03	1.025
1988.71	1.021
1997.4	1.017
2006.08	1.004
2014.77	1.002
2023.46	1.0031
2032.14	1.0359
2040.83	1.002
2049.51	1.007
2058.2	1.002
2066.89	1.006
2075.57	1.008
2084.26	1.004
2092.95	1.012
2101.63	1.009
2110.32	1.009
2119	1.0074
2127.69	1.008
2136.38	1.0097
2145.06	1.009
2153.75	1.009
2162.44	1.008
2171.12	1.0082
2179.81	1.0088
2188.49	1.006
2197.18	1.01
2205.87	1.0117
2214.55	1.0099
2223.24	1.01
2231.93	1.008
2240.61	1.0089
2249.3	1.005
2257.98	1.004
2266.67	1
2275.36	0.995
2284.04	0.99
2292.73	0.983
2301.42	0.982
2310.1	0.978
2318.79	0.9818
2327.47	0.983
2336.16	0.9859
2344.85	0.987
2353.53	0.994
2362.22	0.9913
2370.91	0.9987
2379.59	1.004
2388.28	1.002
2396.96	1.002
2405.65	1.006
2414.34	1.0088
2423.02	1.0098
2431.71	1.012
2440.4	1.012
2449.08	1.009
2457.77	1.0066
2466.45	1.0057
2475.14	1.013
2483.83	1.012
2492.51	1.012
2501.2	1.009
2509.89	1.01
2518.57	1.0108
2527.26	1.0108
2535.94	1.0069
2544.63	1.0029
2553.32	1.0029
2562	1.004
2570.69	1.005
2579.37	1.005
2588.06	1.0045
2596.75	1.002
2605.43	1.002
2614.12	1.002
2622.81	1.002
2631.49	1.001
2640.18	1.0016
2648.86	0.9989
2657.55	1.002
2666.24	1.0013
2674.92	1.002
2683.61	1.0013
2692.3	1
2700.98	1.001
2709.67	1.0002
2718.35	1
2727.04	0.998
2735.73	1.001
2744.41	1
2753.1	0.998
2761.79	1
2770.47	0.9967
2779.16	0.9927
2787.84	0.994
2796.53	0.9901
2805.22	0.987
2813.9	0.986
2822.59	0.9829
2831.28	0.9762
2839.96	0.985
2848.65	0.986
2857.33	0.983
2866.02	0.983
2874.71	0.983
2883.39	0.985
2892.08	0.986
2900.77	0.9851
2909.45	0.986
2918.14	0.986
2926.82	0.9802
2935.51	0.9711
2944.2	0.9671
2952.88	0.9565
2961.57	0.9377
2970.26	0.9222
2978.94	0.9396
2987.63	0.96
2996.31	0.9512
3005	0.9223
3013.69	0.9309
3022.37	0.94
3031.06	0.9192
3039.74	0.9235
3048.43	0.9528
3057.12	0.963
3065.8	0.967
3074.49	0.972
3083.18	0.9756
3091.86	0.9786
3100.55	0.9812
3109.23	0.9811
3117.92	0.9796
3126.61	0.983
3135.29	0.985
3143.98	0.983
3152.67	0.9855
3161.35	0.987
3170.04	0.989
3178.72	0.9894
3187.41	0.991
3196.1	0.9918
3204.78	0.993
3213.47	0.993
3222.16	0.9942
3230.84	0.9937
3239.53	0.9923
3248.21	0.993
3256.9	0.9956
3265.59	0.995
3274.27	0.9956
3282.96	1
3291.65	1
3300.33	1
3309.02	1.001
3317.7	1.001
3326.39	1
3335.08	1.002
3343.76	1.0008
3352.45	1
3361.14	1
3369.82	1.0009
3378.51	1.0019
3387.19	1.0013
3395.88	1.0011
3404.57	1.004
3413.25	1.004
3421.94	1.002
3430.63	1.005
3439.31	1.001
3448	1.001
3456.68	1.002
3465.37	1.0038
3474.06	1.002
3482.74	1.001
3491.43	1.002
3500.12	1.0013
3508.8	1.0019
3517.49	1.0019
3526.17	0.9953
3534.86	1.001
3543.55	0.9976
3552.23	1.0012
3560.92	1.0012
3569.6	1.002
3578.29	1.0018
3586.98	0.9973
3595.66	1.001
3604.35	1
3613.04	0.998
3621.72	0.995
3630.41	0.9917
3639.09	0.994
3647.78	0.994
3656.47	0.991
3665.15	0.994
3673.84	0.993
3682.53	0.9976
3691.21	1.001
3699.9	1
3708.58	0.998
3717.27	0.9975
3725.96	1.0005
3734.64	1.001
3743.33	1.0005
3752.02	0.9991
3760.7	1.0029
3769.39	0.9976
3778.07	1.005
3786.76	1.0032
3795.45	1.0022
