Infrared Spectrum: 1,2-DIBROMO-1-CHLORO ETHANE
Formula: C2 H3 Br2 Cl
CAS: 598-20-9
State: SOLUTION (10% CCl4 FOR 2.5-7.5, 10% CS2 FOR 7.5-15 MICRON)
Class: COBLENTZ
Instrument: Not specified, most likely a prism, grating, or hybrid spectrometer.
Sampling: TRANSMISSION
Path length: 0.01 CM, 0.01 CM
Resolution: 4
Origin: DOW CHEMICAL COMPANY
MICROMETERS	TRANSMITTANCE
2.025	0.86
2.06508	0.862
2.10516	0.867
2.14524	0.868
2.18532	0.868
2.2254	0.864
2.26548	0.87
2.30556	0.868
2.34564	0.872
2.38572	0.868
2.4258	0.878
2.46587	0.88
2.50595	0.878
2.54603	0.88
2.58611	0.873
2.62619	0.88
2.66627	0.88
2.70635	0.873
2.74643	0.875
2.78651	0.864
2.82659	0.864
2.86667	0.85
2.90675	0.832
2.94683	0.832
2.98691	0.847
3.02699	0.854
3.06707	0.86
3.10715	0.862
3.14723	0.867
3.18731	0.872
3.22739	0.868
3.26747	0.86
3.30755	0.822
3.34762	0.849
3.3877	0.868
3.42778	0.883
3.46786	0.888
3.50794	0.89
3.54802	0.888
3.5881	0.9
3.62818	0.9
3.66826	0.902
3.70834	0.902
3.74842	0.91
3.7885	0.905
3.82858	0.925
3.86866	0.922
3.90874	0.913
3.94882	0.918
3.9889	0.918
4.02898	0.92
4.06906	0.928
4.10914	0.927
4.14922	0.925
4.1893	0.927
4.22937	0.91
4.26945	0.89
4.30953	0.883
4.34961	0.895
4.38969	0.908
4.42977	0.92
4.46985	0.925
4.50993	0.93
4.55001	0.932
4.59009	0.93
4.63017	0.932
4.67025	0.932
4.71033	0.928
4.75041	0.928
4.79049	0.932
4.83057	0.925
4.87065	0.93
4.91073	0.925
4.95081	0.923
4.99089	0.923
5.03097	0.928
5.07105	0.928
5.11112	0.93
5.1512	0.932
5.19128	0.933
5.23136	0.928
5.27144	0.93
5.31152	0.928
5.3516	0.923
5.39168	0.923
5.43176	0.93
5.47184	0.928
5.51192	0.93
5.552	0.925
5.59208	0.932
5.63216	0.93
5.67224	0.928
5.71232	0.923
5.7524	0.925
5.79248	0.928
5.83256	0.923
5.87264	0.922
5.91272	0.922
5.9528	0.917
5.99287	0.913
6.03295	0.893
6.07303	0.88
6.11311	0.873
6.15319	0.855
6.19327	0.787
6.23335	0.719
6.27343	0.641
6.31351	0.613
6.35359	0.573
6.39367	0.524
6.43375	0.467
6.47383	0.519
6.51391	0.598
6.55399	0.63
6.59407	0.686
6.63415	0.789
6.67423	0.839
6.71431	0.875
6.75439	0.882
6.79447	0.893
6.83454	0.892
6.87462	0.9
6.9147	0.883
6.95478	0.812
6.99486	0.668
7.03494	0.827
7.07502	0.872
7.1151	0.888
7.15518	0.9
7.19526	0.903
7.23534	0.908
7.27542	0.907
7.3155	0.92
7.35558	0.923
7.39566	0.927
7.43574	0.925
7.47582	0.927
7.5159	0.923
7.55598	0.917
7.59606	0.913
7.63614	0.898
7.67622	0.865
7.71629	0.799
7.75637	0.771
7.79645	0.82
7.83653	0.832
7.87661	0.825
7.91669	0.89
7.95677	0.902
7.99685	0.898
8.03693	0.88
8.07701	0.827
8.11709	0.65
8.15717	0.56
8.19725	0.663
8.23733	0.837
8.27741	0.847
8.31749	0.827
8.35757	0.746
8.39765	0.64
8.43773	0.776
8.47781	0.807
8.51789	0.668
8.55797	0.545
8.59804	0.756
8.63812	0.868
8.6782	0.878
8.71828	0.872
8.75836	0.849
8.79844	0.759
8.83852	0.728
8.8786	0.792
8.91868	0.84
8.95876	0.895
8.99884	0.927
9.03892	0.935
9.079	0.941
9.11908	0.945
9.15916	0.946
9.19924	0.945
9.23932	0.943
9.2794	0.94
9.31948	0.938
9.35956	0.935
9.39964	0.93
9.43972	0.918
9.47979	0.867
9.51987	0.817
9.55995	0.849
9.60003	0.89
9.64011	0.903
9.68019	0.923
9.72027	0.932
9.76035	0.945
9.80043	0.95
9.84051	0.953
9.88059	0.946
9.92067	0.943
9.96075	0.955
10.0008	0.965
10.0409	0.966
10.081	0.97
10.1211	0.981
10.1611	0.983
10.2012	0.983
10.2413	0.981
10.2814	0.98
10.3215	0.981
10.3615	0.981
10.4016	0.976
10.4417	0.975
10.4818	0.97
10.5219	0.96
10.5619	0.961
10.602	0.951
10.6421	0.941
10.6822	0.936
10.7223	0.933
10.7623	0.93
10.8024	0.925
10.8425	0.922
10.8826	0.905
10.9227	0.893
10.9627	0.877
11.0028	0.865
11.0429	0.825
11.083	0.749
11.1231	0.582
11.1631	0.388
11.2032	0.318
11.2433	0.524
11.2834	0.595
11.3235	0.547
11.3635	0.577
11.4036	0.668
11.4437	0.711
11.4838	0.723
11.5239	0.718
11.5639	0.706
11.604	0.696
11.6441	0.684
11.6842	0.681
11.7242	0.694
11.7643	0.724
11.8044	0.751
11.8445	0.777
11.8846	0.802
11.9246	0.814
11.9647	0.825
12.0048	0.832
12.0449	0.835
12.085	0.839
12.125	0.839
12.1651	0.837
12.2052	0.834
12.2453	0.83
12.2854	0.827
12.3254	0.825
12.3655	0.825
12.4056	0.824
12.4457	0.82
12.4858	0.819
12.5258	0.815
12.5659	0.814
12.606	0.814
12.6461	0.812
12.6862	0.809
12.7262	0.809
12.7663	0.815
12.8064	0.82
12.8465	0.824
12.8866	0.825
12.9266	0.825
12.9667	0.822
13.0068	0.817
13.0469	0.81
13.087	0.799
13.127	0.789
13.1671	0.762
13.2072	0.724
13.2473	0.633
13.2874	0.538
13.3274	0.442
13.3675	0.419
13.4076	0.494
13.4477	0.583
13.4877	0.645
13.5278	0.704
13.5679	0.731
13.608	0.746
13.6481	0.749
13.6881	0.747
13.7282	0.744
13.7683	0.737
13.8084	0.723
13.8485	0.703
13.8885	0.683
13.9286	0.671
13.9687	0.671
14.0088	0.671
14.0489	0.666
14.0889	0.65
14.129	0.616
14.1691	0.553
14.2092	0.449
14.2493	0.344
14.2893	0.258
14.3294	0.253
14.3695	0.306
14.4096	0.374
14.4497	0.464
14.4897	0.519
14.5298	0.562
14.5699	0.58
14.61	0.587
14.6501	0.592
14.6901	0.595
14.7302	0.59
14.7703	0.585
14.8104	0.578
14.8505	0.568
14.8905	0.552
14.9306	0.53
14.9707	0.505
15.0108	0.47
15.0509	0.414
15.0909	0.354
15.131	0.301
15.1711	0.263
15.2112	0.235
15.2512	0.213
15.2913	0.199
15.3314	0.189
15.3715	0.194
15.4116	0.22
15.4516	0.27
15.4917	0.316
15.5318	0.353
15.5719	0.374
15.612	0.393
15.652	0.402
15.6921	0.402
15.7322	0.406
15.7723	0.404
15.8124	0.402
15.8524	0.401
15.8925	0.401
15.9326	0.401
15.9727	0.401
