Infrared Spectrum: METHYL ARSONIC ACID
Formula: C H5 O3 As
CAS: 124-58-3
State: SOLID (MULL)
Class: COBLENTZ
Instrument: Not specified, most likely a prism, grating, or hybrid spectrometer.
Sampling: TRANSMISSION
Resolution: 4
Origin: WYANDOTTE CHEMICALS CORP., WYANDOTTE, MICHIGAN, USA
MICROMETERS	TRANSMITTANCE
2.248	1.025
2.28689	1.025
2.32577	1.027
2.36466	1.027
2.40355	1.027
2.44243	1.027
2.48132	1.027
2.52021	1.027
2.5591	1.027
2.59798	1.027
2.63687	1.027
2.67576	1.027
2.71464	1.025
2.75353	1.024
2.79242	1.022
2.8313	1.021
2.87019	1.021
2.90908	1.017
2.94796	1.012
2.98685	1.009
3.02574	0.969
3.06462	0.839
3.10351	0.677
3.1424	0.569
3.18129	0.483
3.22017	0.406
3.25906	0.317
3.29795	0.228
3.33683	0.072
3.37572	0.022
3.41461	0.017
3.45349	0.024
3.49238	0.027
3.53127	0.066
3.57015	0.106
3.60904	0.134
3.64793	0.127
3.68682	0.127
3.7257	0.147
3.76459	0.173
3.80348	0.205
3.84236	0.234
3.88125	0.263
3.92014	0.299
3.95902	0.302
3.99791	0.325
4.0368	0.32
4.07568	0.304
4.11457	0.268
4.15346	0.218
4.19234	0.163
4.23123	0.131
4.27012	0.137
4.30901	0.148
4.34789	0.156
4.38678	0.148
4.42567	0.171
4.46455	0.205
4.50344	0.244
4.54233	0.286
4.58121	0.323
4.6201	0.36
4.65899	0.398
4.69787	0.446
4.73676	0.483
4.77565	0.516
4.81454	0.556
4.85342	0.577
4.89231	0.593
4.9312	0.608
4.97008	0.616
5.00897	0.635
5.04786	0.655
5.08674	0.669
5.12563	0.686
5.16452	0.71
5.2034	0.711
5.24229	0.723
5.28118	0.745
5.32007	0.76
5.35895	0.757
5.39784	0.768
5.43673	0.768
5.47561	0.766
5.5145	0.776
5.55339	0.773
5.59227	0.757
5.63116	0.754
5.67005	0.768
5.70893	0.744
5.74782	0.75
5.78671	0.754
5.82559	0.734
5.86448	0.729
5.90337	0.718
5.94226	0.724
5.98114	0.716
6.02003	0.692
6.05892	0.686
6.0978	0.681
6.13669	0.665
6.17558	0.65
6.21446	0.637
6.25335	0.619
6.29224	0.603
6.33112	0.585
6.37001	0.582
6.4089	0.576
6.44779	0.577
6.48667	0.576
6.52556	0.588
6.56445	0.593
6.60333	0.601
6.64222	0.59
6.68111	0.559
6.71999	0.478
6.75888	0.271
6.79777	0.132
6.83665	0.166
6.87554	0.25
6.91443	0.355
6.95331	0.522
6.9922	0.593
7.03109	0.614
7.06998	0.629
7.10886	0.65
7.14775	0.656
7.18664	0.511
7.22552	0.331
7.26441	0.367
7.3033	0.49
7.34218	0.647
7.38107	0.682
7.41996	0.7
7.45884	0.707
7.49773	0.729
7.53662	0.729
7.57551	0.716
7.61439	0.681
7.65328	0.616
7.69217	0.532
7.73105	0.632
7.76994	0.65
7.80883	0.608
7.84771	0.58
7.8866	0.576
7.92549	0.563
7.96437	0.58
8.00326	0.592
8.04215	0.585
8.08103	0.564
8.11992	0.503
8.15881	0.417
8.1977	0.307
8.23658	0.276
8.27547	0.286
8.31436	0.341
8.35324	0.399
8.39213	0.457
8.43102	0.517
8.4699	0.556
8.50879	0.587
8.54768	0.622
8.58656	0.668
8.62545	0.692
8.66434	0.728
8.70323	0.749
8.74211	0.797
8.781	0.807
8.81989	0.826
8.85877	0.825
8.89766	0.838
8.93655	0.843
8.97543	0.864
9.01432	0.873
9.05321	0.888
9.09209	0.888
9.13098	0.899
9.16987	0.906
9.20875	0.914
9.24764	0.914
9.28653	0.915
9.32542	0.92
9.3643	0.928
9.40319	0.93
9.44208	0.925
9.48096	0.922
9.51985	0.917
9.55874	0.915
9.59762	0.912
9.63651	0.914
9.6754	0.907
9.71428	0.904
9.75317	0.901
9.79206	0.901
9.83095	0.893
9.86983	0.883
9.90872	0.888
9.94761	0.881
9.98649	0.873
10.0254	0.857
10.0643	0.841
10.1032	0.823
10.142	0.804
10.1809	0.773
10.2198	0.733
10.2587	0.694
10.2976	0.655
10.3365	0.614
10.3754	0.571
10.4142	0.503
10.4531	0.454
10.492	0.38
10.5309	0.309
10.5698	0.247
10.6087	0.192
10.6476	0.152
10.6865	0.14
10.7253	0.137
10.7642	0.156
10.8031	0.194
10.842	0.221
10.8809	0.273
10.9198	0.312
10.9587	0.339
10.9976	0.355
11.0364	0.36
11.0753	0.355
11.1142	0.338
11.1531	0.318
11.192	0.307
11.2309	0.31
11.2698	0.326
11.3086	0.347
11.3475	0.378
11.3864	0.391
11.4253	0.393
11.4642	0.388
11.5031	0.401
11.542	0.441
11.5809	0.472
11.6197	0.503
11.6586	0.516
11.6975	0.525
11.7364	0.532
11.7753	0.527
11.8142	0.522
11.8531	0.514
11.892	0.508
11.9308	0.491
11.9697	0.472
12.0086	0.461
12.0475	0.432
12.0864	0.412
12.1253	0.391
12.1642	0.367
12.203	0.336
12.2419	0.307
12.2808	0.276
12.3197	0.252
12.3586	0.226
12.3975	0.205
12.4364	0.187
12.4753	0.168
12.5141	0.152
12.553	0.137
12.5919	0.118
12.6308	0.101
12.6697	0.082
12.7086	0.061
12.7475	0.056
12.7863	0.045
12.8252	0.04
12.8641	0.042
12.903	0.038
12.9419	0.045
12.9808	0.079
13.0197	0.119
13.0586	0.153
13.0974	0.182
13.1363	0.216
13.1752	0.258
13.2141	0.294
13.253	0.315
13.2919	0.346
13.3308	0.352
13.3697	0.375
13.4085	0.388
13.4474	0.415
13.4863	0.42
13.5252	0.432
13.5641	0.443
13.603	0.456
13.6419	0.477
13.6807	0.493
13.7196	0.512
13.7585	0.517
13.7974	0.535
13.8363	0.542
13.8752	0.558
13.9141	0.571
13.953	0.603
13.9918	0.621
14.0307	0.647
14.0696	0.668
14.1085	0.689
14.1474	0.708
14.1863	0.721
14.2252	0.734
14.2641	0.747
14.3029	0.755
14.3418	0.765
14.3807	0.775
14.4196	0.781
14.4585	0.791
14.4974	0.8
14.5363	0.797
14.5751	0.8
14.614	0.81
14.6529	0.81
14.6918	0.818
14.7307	0.82
14.7696	0.818
14.8085	0.823
14.8474	0.825
14.8862	0.826
14.9251	0.83
14.964	0.828
15.0029	0.818
15.0418	0.786
15.0807	0.745
15.1196	0.736
15.1585	0.758
15.1973	0.784
15.2362	0.828
15.2751	0.839
15.314	0.839
15.3529	0.834
15.3918	0.839
15.4307	0.841
15.4695	0.82
15.5084	0.818
15.5473	0.789
15.5862	0.747
15.6251	0.689
15.664	0.648
15.7029	0.665
15.7418	0.702
15.7806	0.736
15.8195	0.758
15.8584	0.775
15.8973	0.773
15.9362	0.757
15.9751	0.757
