Infrared Spectrum: Methoxyacetonitrile
Formula: C3 H5 N O
CAS: 1738-36-9
State: LIQUID (NEAT)
Class: COBLENTZ III
Instrument: PERKIN-ELMER 521 (GRATING)
Instrument parameters: FILTERS AT 3150, 2500, 2000, 1150, 700, 410. GRATING CHANGES: 2000, 630 CM^-^1
Sampling: TRANSMISSION
Path length: CAPILLARY (BETWEEN KBr PLATES)
Resolution: 2
Origin: STANDARD OIL OF OHIO
1/CM	TRANSMITTANCE
3896	0.8344
3886	0.8352
3876	0.8362
3866	0.8367
3856	0.8368
3846	0.8368
3836	0.837
3826	0.8371
3816	0.8371
3806	0.8373
3796	0.8373
3786	0.8374
3776	0.8374
3766	0.8374
3756	0.8374
3746	0.8371
3736	0.8371
3726	0.8368
3716	0.8368
3706	0.8366
3696	0.8362
3686	0.8349
3676	0.8321
3666	0.8256
3656	0.8187
3646	0.8168
3636	0.8115
3626	0.8097
3616	0.8105
3606	0.8114
3596	0.8121
3586	0.8125
3576	0.813
3566	0.8118
3556	0.8103
3546	0.8089
3536	0.8091
3526	0.8097
3516	0.8103
3506	0.8106
3496	0.8108
3486	0.8111
3476	0.8112
3466	0.8115
3456	0.8115
3446	0.8117
3436	0.8121
3426	0.8128
3416	0.8136
3406	0.8143
3396	0.8148
3386	0.8149
3376	0.8149
3366	0.8149
3356	0.815
3346	0.815
3336	0.815
3326	0.8151
3316	0.815
3306	0.8146
3296	0.8143
3286	0.814
3276	0.8137
3266	0.8134
3256	0.8131
3246	0.8124
3236	0.8111
3226	0.8096
3216	0.8083
3206	0.8054
3196	0.8021
3186	0.7989
3176	0.7954
3166	0.7934
3156	0.7918
3146	0.7912
3136	0.7917
3126	0.789
3116	0.7862
3106	0.7853
3096	0.7858
3086	0.7864
3076	0.7865
3066	0.7858
3056	0.785
3046	0.7835
3036	0.7778
3026	0.7641
3016	0.719
3006	0.6571
2996	0.6637
2986	0.6874
2976	0.6983
2966	0.6828
2956	0.6048
2946	0.5339
2936	0.5198
2926	0.539
2916	0.5993
2906	0.6082
2896	0.6284
2886	0.6537
2876	0.6884
2866	0.7111
2856	0.7144
2846	0.7111
2836	0.6457
2826	0.6085
2816	0.7188
2806	0.7637
2796	0.7901
2786	0.8068
2776	0.8186
2766	0.8228
2756	0.8251
2746	0.8268
2736	0.8286
2726	0.8304
2716	0.832
2706	0.8331
2696	0.8342
2686	0.8352
2676	0.8359
2666	0.8367
2656	0.8374
2646	0.8375
2636	0.8375
2626	0.8375
2616	0.8375
2606	0.8371
2596	0.837
2586	0.8368
2576	0.8371
2566	0.8375
2556	0.838
2546	0.8385
2536	0.8392
2526	0.8399
2516	0.8404
2506	0.8408
2496	0.8413
2486	0.8421
2476	0.8413
2466	0.8388
2456	0.838
2446	0.8373
2436	0.8373
2426	0.8375
2416	0.8378
2406	0.8382
2396	0.8387
2386	0.8392
2376	0.8402
2366	0.8415
2356	0.8427
2346	0.8439
2336	0.8449
2326	0.8459
2316	0.8465
2306	0.8465
2296	0.8464
2286	0.8464
2276	0.8462
2266	0.8457
2256	0.8441
2246	0.8341
2236	0.8373
2226	0.8414
2216	0.8427
2206	0.8437
2196	0.8447
2186	0.8457
2176	0.8467
2166	0.848
2156	0.8494
2146	0.8503
2136	0.8508
2126	0.8504
2116	0.8496
2106	0.8484
2096	0.8431
2086	0.8408
2076	0.8425
2066	0.8447
2056	0.8448
2046	0.8442
2036	0.8431
2026	0.8414
2016	0.8295
2006	0.8245
1996	0.8396
1986	0.8454
1976	0.8497
1966	0.852
1956	0.8534
1946	0.8544
1936	0.8556
1926	0.8568
1916	0.8574
1906	0.8577
1896	0.8581
1886	0.8585
1876	0.8581
1866	0.8575
1856	0.8573
1846	0.8568
1836	0.8563
1826	0.8556
1816	0.8553
1806	0.855
1796	0.854
1786	0.8528
1776	0.8516
1766	0.8425
1756	0.8256
1746	0.8242
1736	0.8296
1726	0.8311
1716	0.8374
1706	0.8382
1696	0.8359
1686	0.8309
1676	0.8318
1666	0.8352
1656	0.8371
1646	0.8352
1636	0.8318
1626	0.8307
1616	0.8345
1606	0.8364
1596	0.8381
1586	0.8397
1576	0.8405
1566	0.8411
1556	0.8411
1546	0.8406
1536	0.8397
1526	0.8383
1516	0.8368
1506	0.8346
1496	0.832
1486	0.8278
1476	0.8011
1466	0.6972
1456	0.5721
1446	0.5643
1436	0.67
1426	0.6901
1416	0.7518
1406	0.7718
1396	0.77
1386	0.7715
1376	0.7421
1366	0.733
1356	0.7037
1346	0.7176
1336	0.7886
1326	0.8128
1316	0.8243
1306	0.8252
1296	0.8238
1286	0.7667
1276	0.731
1266	0.8019
1256	0.8121
1246	0.8124
1236	0.8096
1226	0.8012
1216	0.7848
1206	0.7551
1196	0.6173
1186	0.4286
1176	0.6426
1166	0.7307
1156	0.7154
1146	0.6714
1136	0.6607
1126	0.5819
1116	0.3414
1106	0.1753
1096	0.368
1086	0.6134
1076	0.6865
1066	0.735
1056	0.7611
1046	0.7808
1036	0.7907
1026	0.7934
1016	0.7788
1006	0.6798
996	0.773
986	0.8062
976	0.8158
966	0.8097
956	0.7443
946	0.766
936	0.7832
926	0.7669
916	0.6037
906	0.4752
896	0.7356
886	0.7006
876	0.6437
866	0.7914
856	0.8305
846	0.8371
836	0.8368
826	0.8395
816	0.8437
806	0.8471
796	0.8494
786	0.8533
776	0.8568
766	0.858
756	0.8583
746	0.8585
736	0.8588
726	0.8589
716	0.8575
706	0.8492
696	0.8501
686	0.853
676	0.8534
666	0.8515
656	0.8508
646	0.8394
636	0.8381
626	0.8408
616	0.8362
606	0.8442
596	0.8428
586	0.8367
576	0.8453
566	0.8481
556	0.8489
546	0.8466
536	0.843
526	0.8418
516	0.8409
506	0.8392
496	0.8366
486	0.8324
476	0.8259
466	0.8126
456	0.7946
446	0.7703
436	0.7451
426	0.72
416	0.6861
406	0.6352
396	0.6087
386	0.5709
376	0.5102
366	0.4551
356	0.3855
346	0.3464
336	0.2808
326	0.213
316	0.169
306	0.128
296	0.1094
286	0.0845
276	0.0805
266	0.0743
256	0.0635
246	0.0619
