Infrared Spectrum: Methoxyacetonitrile
Formula: C 3 H 5 N O
CAS: 1738-36-9
State: gas
Origin: Sadtler Research Labs Under US-EPA Contract
1/CM	ABSORBANCE
450	0
462	0.024868
474	0.0302449
486	0.0299088
498	0.037302
510	0.0315891
522	0.0243639
534	0.0273884
546	0.0282285
558	0.0320932
570	0.0440231
582	0.0443591
594	0.0451993
606	0.0359578
618	0.0302449
630	0.0289006
642	0.0263802
654	0.0322612
666	0.0339415
678	0.0509122
690	0.0530965
702	0.0463755
714	0.037134
726	0.0337734
738	0.0317571
750	0.0329333
762	0.0339415
774	0.037638
786	0.0393183
798	0.0421748
810	0.0450312
822	0.0451993
834	0.0431829
846	0.049568
858	0.074772
870	0.142991
882	0.238262
894	0.335382
906	0.433174
918	0.50761
930	0.462074
942	0.326981
954	0.164162
966	0.0966155
978	0.0858618
990	0.106193
1002	0.150216
1014	0.174244
1026	0.156769
1038	0.100816
1050	0.080653
1062	0.0893904
1074	0.12686
1086	0.23591
1098	0.542727
1110	1.23113
1122	1.65658
1134	1.66027
1146	1.09335
1158	0.490471
1170	0.349664
1182	0.507274
1194	0.595824
1206	0.568603
1218	0.32614
1230	0.136438
1242	0.0984638
1254	0.0937591
1266	0.111738
1278	0.12602
1290	0.115939
1302	0.0912387
1314	0.0672108
1326	0.081157
1338	0.157441
1350	0.230197
1362	0.269179
1374	0.22146
1386	0.135598
1398	0.0756122
1410	0.0566251
1422	0.0742679
1434	0.114594
1446	0.194407
1458	0.262626
1470	0.255401
1482	0.166683
1494	0.10216
1506	0.0705713
1518	0.0546088
1530	0.0455353
1542	0.0421748
1554	0.0401585
1566	0.0411666
1578	0.0416707
1590	0.03747
1602	0.0362938
1614	0.0369659
1626	0.0352857
1638	0.0327653
1650	0.0324292
1662	0.0292367
1674	0.0320932
1686	0.0319251
1698	0.0342775
1710	0.0325972
1722	0.0331013
1734	0.0367979
1746	0.0384782
1758	0.0381421
1770	0.0393183
1782	0.0347816
1794	0.0347816
1806	0.0300768
1818	0.0275564
1830	0.0283966
1842	0.0282285
1854	0.0263802
1866	0.0258762
1878	0.025036
1890	0.0235238
1902	0.0247
1914	0.0255401
1926	0.0258762
1938	0.0255401
1950	0.024868
1962	0.0255401
1974	0.0270523
1986	0.031421
1998	0.037302
2010	0.0475516
2022	0.0584734
2034	0.068387
2046	0.0631782
2058	0.0544407
2070	0.043519
2082	0.0409986
2094	0.0413346
2106	0.0446952
2118	0.0450312
2130	0.0409986
2142	0.0351176
2154	0.0299088
2166	0.0287326
2178	0.0275564
2190	0.0285646
2202	0.0299088
2214	0.0339415
2226	0.043687
2238	0.0539367
2250	0.06217
2262	0.0510802
2274	0.0381421
2286	0.0292367
2298	0.0304129
2310	0.0329333
2322	0.0329333
2334	0.0337734
2346	0.0346136
2358	0.0315891
2370	0.0364619
2382	0.0325972
2394	0.0307489
2406	0.031421
2418	0.0292367
2430	0.0283966
2442	0.0280605
2454	0.0289006
2466	0.0290687
2478	0.0285646
2490	0.0267163
2502	0.0245319
2514	0.0230197
2526	0.0226836
2538	0.0235238
2550	0.0253721
2562	0.0265483
2574	0.0280605
2586	0.0289006
2598	0.0295728
2610	0.0300768
2622	0.0292367
2634	0.0283966
2646	0.0290687
2658	0.0292367
2670	0.0290687
2682	0.0302449
2694	0.0324292
2706	0.0342775
2718	0.0346136
2730	0.0349496
2742	0.0354537
2754	0.0359578
2766	0.0388142
2778	0.0458714
2790	0.0611618
2802	0.0940951
2814	0.161138
2826	0.279261
2838	0.373188
2850	0.402257
2862	0.364115
2874	0.33639
2886	0.373524
2898	0.441575
2910	0.507274
2922	0.523404
2934	0.575492
2946	0.605737
2958	0.448128
2970	0.359746
2982	0.251368
2994	0.265315
3006	0.312194
3018	0.295896
3030	0.229525
3042	0.104177
3054	0.0729237
3066	0.062002
3078	0.0574652
3090	0.0532646
3102	0.049904
3114	0.0460394
3126	0.0430149
3138	0.0393183
3150	0.037302
3162	0.0359578
3174	0.0349496
3186	0.0327653
3198	0.0307489
3210	0.0294047
3222	0.0277245
3234	0.0285646
3246	0.0273884
3258	0.0278925
3270	0.0273884
3282	0.0273884
3294	0.0267163
3306	0.0268843
3318	0.0270523
3330	0.0273884
3342	0.0270523
3354	0.0258762
3366	0.0258762
3378	0.0258762
3390	0.0255401
3402	0.0253721
3414	0.0260442
3426	0.0262122
3438	0.0257081
3450	0.0260442
3462	0.025036
3474	0.0257081
3486	0.0252041
3498	0.0253721
3510	0.0262122
3522	0.0257081
3534	0.0263802
3546	0.0273884
3558	0.0257081
3570	0.0265483
3582	0.0277245
3594	0.0262122
3606	0.0267163
3618	0.0265483
3630	0.024868
3642	0.0272204
3654	0.0233558
3666	0.0252041
3678	0.0283966
3690	0.0247
3702	0.0265483
3714	0.0262122
3726	0.0270523
3738	0.0268843
3750	0.0220115
3762	0.0275564
3774	0.0257081
3786	0.024868
3798	0.0225156
3810	0.0278925
3822	0.0252041
3834	0.0243639
3846	0.0253721
3858	0.0262122
3870	0.0270523
3882	0.0263802
3894	0.0277245
3906	0.0275564
3918	0.0277245
3930	0.0272204
3942	0.0302449
3954	0.0280605
3966	0.0287326
