Infrared Spectrum: 3-BUTENENITRILE
Formula: C4 H5 N
CAS: 109-75-1
State: SOLID (KBr DISC)
Class: COBLENTZ III
Instrument: PERKIN-ELMER 180 (GRATING)
Instrument parameters: GRATING CHANGES AT 2000, 1000, 500, 250 CM^-^1
Sampling: TRANSMISSION
Path length: 0.0025 CM
Resolution: 4
Origin: STANDARD OIL OF OHIO
1/CM	TRANSMITTANCE
391.497	0.626
401.015	0.634
410.533	0.573
420.05	0.66
429.568	0.782
439.086	0.837
448.604	0.871
458.121	0.893
467.639	0.914
477.157	0.921
486.675	0.921
496.193	0.917
505.71	0.889
515.228	0.821
524.746	0.84
534.264	0.91
543.782	0.917
553.299	0.907
562.817	0.874
572.335	0.79
581.853	0.615
591.37	0.376
600.888	0.551
610.406	0.786
619.924	0.714
629.442	0.739
638.959	0.849
648.477	0.894
657.995	0.912
667.513	0.913
677.03	0.907
686.548	0.901
696.066	0.882
705.584	0.861
715.102	0.797
724.619	0.828
734.137	0.891
743.655	0.891
753.173	0.898
762.691	0.914
772.208	0.913
781.726	0.912
791.244	0.912
800.762	0.911
810.279	0.908
819.797	0.902
829.315	0.894
838.833	0.884
848.351	0.862
857.868	0.796
867.386	0.775
876.904	0.697
886.422	0.629
895.939	0.353
905.457	0.252
914.975	0.073
924.493	0.048
934.011	0.075
943.528	0.259
953.046	0.45
962.564	0.491
972.082	0.342
981.6	0.081
991.117	0.211
1000.64	0.549
1010.15	0.707
1019.67	0.765
1029.19	0.809
1038.71	0.813
1048.22	0.805
1057.74	0.76
1067.26	0.739
1076.78	0.791
1086.3	0.827
1095.81	0.817
1105.33	0.764
1114.85	0.85
1124.37	0.889
1133.88	0.899
1143.4	0.901
1152.92	0.901
1162.44	0.901
1171.96	0.899
1181.47	0.894
1190.99	0.885
1200.51	0.865
1210.03	0.861
1219.54	0.867
1229.06	0.869
1238.58	0.866
1248.1	0.859
1257.62	0.835
1267.13	0.798
1276.65	0.738
1286.17	0.705
1295.69	0.727
1305.2	0.829
1314.72	0.828
1324.24	0.852
1333.76	0.85
1343.28	0.844
1352.79	0.834
1362.31	0.816
1371.83	0.778
1381.35	0.732
1390.86	0.637
1400.38	0.39
1409.9	0.071
1419.42	0.191
1428.94	0.584
1438.45	0.714
1447.97	0.803
1457.49	0.841
1467.01	0.846
1476.52	0.848
1486.04	0.859
1495.56	0.869
1505.08	0.884
1514.6	0.884
1524.11	0.882
1533.63	0.871
1543.15	0.866
1552.67	0.866
1562.18	0.866
1571.7	0.867
1581.22	0.878
1590.74	0.879
1600.26	0.871
1609.77	0.842
1619.29	0.792
1628.81	0.717
1638.33	0.224
1647.84	0.7379
1657.36	0.86
1666.88	0.893
1676.4	0.9
1685.92	0.901
1695.43	0.904
1704.95	0.904
1714.47	0.904
1723.99	0.906
1733.5	0.906
1743.02	0.906
1752.54	0.902
1762.06	0.898
1771.58	0.895
1781.09	0.895
1790.61	0.894
1800.13	0.888
1809.65	0.884
1819.16	0.875
1828.68	0.854
1838.2	0.837
1847.72	0.824
1857.24	0.808
1866.75	0.809
1876.27	0.824
1885.79	0.849
1895.31	0.867
1904.82	0.876
1914.34	0.88
1923.86	0.884
1933.38	0.884
1942.9	0.882
1952.41	0.873
1961.93	0.866
1971.45	0.867
1980.97	0.879
1990.48	0.882
2000	0.879
2009.52	0.88
2019.04	0.88
2028.56	0.88
2038.07	0.88
2047.59	0.88
2057.11	0.88
2066.63	0.88
2076.14	0.88
2085.66	0.88
2095.18	0.879
2104.7	0.8789
2114.22	0.878
2123.73	0.876
2133.25	0.875
2142.77	0.872
2152.29	0.8688
2161.8	0.867
2171.32	0.8658
2180.84	0.8618
2190.36	0.8535
2199.88	0.8497
2209.39	0.8319
2218.91	0.7567
2228.43	0.7084
2237.95	0.5329
2247.46	0.2753
2256.98	0.5115
2266.5	0.7234
2276.02	0.8251
2285.54	0.8435
2295.05	0.8528
2304.57	0.862
2314.09	0.863
2323.61	0.863
2333.12	0.863
2342.64	0.863
2352.16	0.8625
2361.68	0.862
2371.2	0.862
2380.71	0.862
2390.23	0.862
2399.75	0.8625
2409.27	0.862
2418.78	0.862
2428.3	0.862
2437.82	0.862
2447.34	0.862
2456.86	0.862
2466.37	0.8614
2475.89	0.861
2485.41	0.8604
2494.93	0.859
2504.44	0.859
2513.96	0.859
2523.48	0.859
2533	0.859
2542.52	0.857
2552.03	0.8543
2561.55	0.854
2571.07	0.854
2580.59	0.853
2590.1	0.852
2599.62	0.849
2609.14	0.85
2618.66	0.857
2628.18	0.859
2637.69	0.86
2647.21	0.86
2656.73	0.86
2666.25	0.86
2675.76	0.859
2685.28	0.8541
2694.8	0.853
2704.32	0.853
2713.84	0.853
2723.35	0.853
2732.87	0.853
2742.39	0.853
2751.91	0.852
2761.42	0.849
2770.94	0.848
2780.46	0.843
2789.98	0.834
2799.5	0.8265
2809.01	0.813
2818.53	0.813
2828.05	0.8099
2837.57	0.8068
2847.08	0.7996
2856.6	0.7846
2866.12	0.7727
2875.64	0.7615
2885.16	0.7463
2894.67	0.7167
2904.19	0.684
2913.71	0.6139
2923.23	0.579
2932.74	0.568
2942.26	0.5965
2951.78	0.62
2961.3	0.6257
2970.82	0.6331
2980.33	0.6045
2989.85	0.5501
2999.37	0.6657
3008.89	0.6623
3018.4	0.6355
3027.92	0.5986
3037.44	0.6722
3046.96	0.6856
3056.48	0.6784
3065.99	0.6471
3075.51	0.5906
3085.03	0.5484
3094.55	0.5236
3104.06	0.7024
3113.58	0.7533
3123.1	0.779
3132.62	0.7965
3142.14	0.8045
3151.65	0.808
3161.17	0.808
3170.69	0.807
3180.21	0.805
3189.72	0.807
3199.24	0.808
3208.76	0.8218
3218.28	0.8342
3227.8	0.8416
3237.31	0.844
3246.83	0.844
3256.35	0.8447
3265.87	0.846
3275.39	0.846
3284.9	0.846
3294.42	0.846
3303.94	0.847
3313.46	0.847
3322.97	0.848
3332.49	0.848
3342.01	0.848
3351.53	0.848
3361.05	0.848
3370.56	0.848
3380.08	0.848
3389.6	0.848
3399.12	0.848
3408.63	0.848
3418.15	0.848
3427.67	0.848
3437.19	0.848
3446.71	0.8479
3456.22	0.8461
3465.74	0.843
3475.26	0.841
3484.78	0.84
3494.29	0.837
3503.81	0.835
3513.33	0.835
3522.85	0.834
3532.37	0.834
3541.88	0.835
3551.4	0.8361
3560.92	0.8411
3570.44	0.8431
3579.95	0.8471
3589.47	0.848
3598.99	0.848
3608.51	0.848
3618.03	0.8478
3627.54	0.847
3637.06	0.847
3646.58	0.848
3656.1	0.848
3665.61	0.8522
3675.13	0.854
3684.65	0.854
3694.17	0.854
3703.69	0.854
3713.2	0.854
3722.72	0.854
3732.24	0.854
3741.76	0.853
3751.27	0.853
3760.79	0.853
3770.31	0.8526
3779.83	0.8496
3789.35	0.85
3798.86	0.85
3808.38	0.849
3817.9	0.8484
3827.42	0.852
3836.93	0.85
3846.45	0.849
3855.97	0.849
3865.49	0.8495
3875.01	0.85
3884.52	0.852
3894.04	0.853
3903.56	0.853
3913.08	0.853
