Infrared Spectrum: Allyl cyanide
Formula: C 4 H 5 N
CAS: 109-75-1
State: gas
Instrument: HP-GC/MS/IRD
Origin: NIST Mass Spectrometry Data Center
1/CM	ABSORBANCE
550	0.0014022
562	0.001011
574	0.0007014
586	0.0004998
598	0.0005814
610	0.0005682
622	0.0006414
634	0.0004398
646	0.0003252
658	0.0002652
670	0.0002838
682	0.0004266
694	0.0003846
706	0.000336
718	0.0002202
730	0.0001464
742	0.0001026
754	2.4e-05
766	5.1e-05
778	6.96e-05
790	5.58e-05
802	4.32e-05
814	0.000126
826	0.0001338
838	0.0002562
850	0.000324
862	0.0005856
874	0.0008424
886	0.001452
898	0.0025248
910	0.0036678
922	0.0050058
934	0.0058506
946	0.0052926
958	0.004575
970	0.0040104
982	0.0038352
994	0.0031158
1006	0.0023664
1018	0.0015414
1030	0.0009132
1042	0.000636
1054	0.0005262
1066	0.0004104
1078	0.0003438
1090	0.0004728
1102	0.0005508
1114	0.0004212
1126	0.0004332
1138	0.0002028
1150	0.0002064
1162	0.000174
1174	0.0001746
1186	0.000258
1198	0.0002352
1210	0.0002406
1222	0.00033
1234	0.0003438
1246	0.0003108
1258	0.0003996
1270	0.0005856
1282	0.000723
1294	0.000711
1306	0.0006096
1318	0.000366
1330	0.0002442
1342	0.000243
1354	0.0002796
1366	0.000324
1378	0.0005316
1390	0.0009528
1402	0.0016518
1414	0.0023526
1426	0.0022332
1438	0.002208
1450	0.0014904
1462	0.0008454
1474	0.000459
1486	0.0002952
1498	0.0002196
1510	0.0001512
1522	0.0001584
1534	0.0001758
1546	0.000201
1558	0.0001968
1570	0.0001872
1582	0.0001764
1594	0.0001716
1606	0.0003138
1618	0.0006078
1630	0.0013554
1642	0.001767
1654	0.0016764
1666	0.0009834
1678	0.0002688
1690	0.0001416
1702	0.0001038
1714	7.56e-05
1726	8.16e-05
1738	6.54e-05
1750	6.24e-05
1762	5.82e-05
1774	8.28e-05
1786	7.68e-05
1798	9.42e-05
1810	0.0001128
1822	0.0001818
1834	0.000261
1846	0.0003942
1858	0.0005292
1870	0.0005382
1882	0.000438
1894	0.0002508
1906	0.0001944
1918	0.0001428
1930	0.0001308
1942	0.000141
1954	0.0001878
1966	0.0001512
1978	0.0001164
1990	8.28e-05
2002	7.02e-05
2014	7.08e-05
2026	6.78e-05
2038	6.96e-05
2050	5.76e-05
2062	6.54e-05
2074	6.48e-05
2086	3.96e-05
2098	4.32e-05
2110	5.34e-05
2122	4.08e-05
2134	3.12e-05
2146	5.88e-05
2158	5.82e-05
2170	4.86e-05
2182	5.34e-05
2194	4.68e-05
2206	4.62e-05
2218	6.36e-05
2230	0.0001434
2242	0.0002382
2254	0.000309
2266	0.0003186
2278	0.0002058
2290	0.0001224
2302	8.94e-05
2314	8.7e-05
2326	0.0001182
2338	9.66e-05
2350	9.12e-05
2362	9.18e-05
2374	0.0001134
2386	9.66e-05
2398	8.4e-05
2410	8.52e-05
2422	9.72e-05
2434	6.24e-05
2446	4.92e-05
2458	6.42e-05
2470	6.12e-05
2482	4.5e-05
2494	7.74e-05
2506	4.62e-05
2518	3.48e-05
2530	7.86e-05
2542	4.5e-05
2554	5.28e-05
2566	7.14e-05
2578	7.74e-05
2590	9.24e-05
2602	0.0001068
2614	0.0001134
2626	0.000102
2638	9.9e-05
2650	6.54e-05
2662	6.54e-05
2674	3.3e-05
2686	4.02e-05
2698	8.16e-05
2710	0.000105
2722	0.0001272
2734	7.92e-05
2746	9.84e-05
2758	6.06e-05
2770	4.08e-05
2782	5.76e-05
2794	9.42e-05
2806	0.0001596
2818	0.000216
2830	0.000216
2842	0.0002016
2854	0.0002016
2866	0.0001722
2878	0.0001758
2890	0.0002694
2902	0.0004668
2914	0.0007248
2926	0.000777
2938	0.0009594
2950	0.0008406
2962	0.0007452
2974	0.0007686
2986	0.0007848
2998	0.000867
3010	0.00102
3022	0.0012936
3034	0.0012186
3046	0.0011802
3058	0.0009432
3070	0.0010056
3082	0.0014862
3094	0.0018306
3106	0.001749
3118	0.0012984
3130	0.0006018
3142	0.000321
3154	0.000228
3166	0.000162
3178	0.0001746
3190	0.000171
3202	0.000147
3214	0.000138
3226	0.0001578
3238	0.000165
3250	0.000123
3262	8.46e-05
3274	7.32e-05
3286	7.74e-05
3298	9.9e-05
3310	6.66e-05
3322	7.74e-05
3334	7.92e-05
3346	7.5e-05
3358	0.0001422
3370	3.96e-05
3382	7.44e-05
3394	5.4e-05
3406	0.0001104
3418	6.3e-05
3430	4.62e-05
3442	0.0001014
3454	7.92e-05
3466	8.1e-05
3478	6.66e-05
3490	0.0001236
3502	0.0001122
3514	0.0001032
3526	0.0001362
3538	0.0001212
3550	0.0001344
3562	8.46e-05
3574	9.84e-05
3586	8.64e-05
3598	7.2e-05
3610	0.0001128
3622	0.0001446
3634	8.76e-05
3646	6.54e-05
3658	0.000105
3670	7.02e-05
3682	0.0001038
3694	0.0001482
3706	9.9e-05
3718	0.0001098
3730	0.0001026
3742	5.64e-05
3754	3.9e-05
3766	6.24e-05
3778	6.9e-05
3790	0.0001212
3802	9.3e-05
3814	5.4e-05
3826	0.0001296
3838	7.8e-05
