Infrared Spectrum: VINYLACETONITRILE
Formula: C4 H5 N
CAS: 109-75-1
State: SOLUTION (10% CCl4 FOR 5000-1330, 10% CS2 FOR 1330-625 CM^-^1)
Class: COBLENTZ
Instrument: Not specified, most likely a prism, grating, or hybrid spectrometer.
Sampling: TRANSMISSION
Path length: 0.0121 CM, 0.0116 CM
Resolution: 4
Origin: DOW CHEMICAL COMPANY
MICROMETERS	TRANSMITTANCE
2.014	0.854
2.05506	0.854
2.09611	0.854
2.13717	0.854
2.17822	0.847
2.21928	0.833
2.26033	0.833
2.30139	0.826
2.34244	0.842
2.3835	0.85
2.42455	0.849
2.46561	0.859
2.50667	0.859
2.54772	0.859
2.58878	0.857
2.62983	0.869
2.67089	0.871
2.71194	0.862
2.753	0.854
2.79405	0.849
2.83511	0.828
2.87617	0.831
2.91722	0.837
2.95828	0.835
2.99933	0.835
3.04039	0.837
3.08144	0.842
3.1225	0.833
3.16355	0.831
3.20461	0.801
3.24566	0.722
3.28672	0.761
3.32778	0.758
3.36883	0.753
3.40989	0.795
3.45094	0.795
3.492	0.855
3.53305	0.861
3.57411	0.864
3.61516	0.888
3.65622	0.886
3.69728	0.89
3.73833	0.891
3.77939	0.891
3.82044	0.883
3.8615	0.888
3.90255	0.891
3.94361	0.893
3.98466	0.89
4.02572	0.897
4.06677	0.9
4.10783	0.9
4.14889	0.891
4.18994	0.883
4.231	0.878
4.27205	0.881
4.31311	0.881
4.35416	0.855
4.39522	0.795
4.43627	0.651
4.47733	0.816
4.51839	0.886
4.55944	0.891
4.6005	0.902
4.64155	0.902
4.68261	0.902
4.72366	0.903
4.76472	0.907
4.80577	0.909
4.84683	0.909
4.88788	0.902
4.92894	0.902
4.97	0.903
5.01105	0.903
5.05211	0.895
5.09316	0.881
5.13422	0.891
5.17527	0.903
5.21633	0.898
5.25738	0.891
5.29844	0.881
5.3395	0.847
5.38055	0.823
5.42161	0.845
5.46266	0.873
5.50372	0.9
5.54477	0.9
5.58583	0.9
5.62688	0.903
5.66794	0.9
5.70899	0.902
5.75005	0.891
5.79111	0.891
5.83216	0.885
5.87322	0.879
5.91427	0.876
5.95533	0.879
5.99638	0.878
6.03744	0.84
6.07849	0.715
6.11955	0.62
6.16061	0.802
6.20166	0.794
6.24272	0.754
6.28377	0.691
6.32483	0.636
6.36588	0.62
6.40694	0.583
6.44799	0.547
6.48905	0.519
6.5301	0.557
6.57116	0.612
6.61222	0.658
6.65327	0.715
6.69433	0.771
6.73538	0.809
6.77644	0.819
6.81749	0.833
6.85855	0.831
6.8996	0.818
6.94066	0.771
6.98171	0.662
7.02277	0.427
7.06383	0.238
7.10488	0.457
7.14594	0.67
7.18699	0.78
7.22805	0.833
7.2691	0.838
7.31016	0.847
7.35121	0.859
7.39227	0.867
7.43333	0.869
7.47438	0.871
7.51544	0.874
7.55649	0.857
7.59755	0.845
7.6386	0.826
7.67966	0.795
7.72071	0.771
7.76177	0.777
7.80282	0.79
7.84388	0.842
7.88494	0.861
7.92599	0.883
7.96705	0.903
8.0081	0.91
8.04916	0.915
8.09021	0.919
8.13127	0.917
8.17232	0.9
8.21338	0.891
8.25444	0.885
8.29549	0.903
8.33655	0.929
8.3776	0.938
8.41866	0.945
8.45971	0.948
8.50077	0.95
8.54182	0.951
8.58288	0.951
8.62393	0.951
8.66499	0.951
8.70605	0.95
8.7471	0.946
8.78816	0.938
8.82921	0.924
8.87027	0.919
8.91132	0.902
8.95238	0.888
8.99343	0.866
9.03449	0.85
9.07555	0.861
9.1166	0.874
9.15766	0.876
9.19871	0.873
9.23977	0.857
9.28082	0.847
9.32188	0.833
9.36293	0.826
9.40399	0.83
9.44504	0.849
9.4861	0.864
9.52716	0.867
9.56821	0.869
9.60927	0.869
9.65032	0.869
9.69138	0.864
9.73243	0.857
9.77349	0.847
9.81454	0.838
9.8556	0.826
9.89666	0.809
9.93771	0.785
9.97877	0.737
10.0198	0.663
10.0609	0.557
10.1019	0.42
10.143	0.262
10.184	0.164
10.2251	0.186
10.2662	0.377
10.3072	0.519
10.3483	0.607
10.3893	0.641
10.4304	0.632
10.4714	0.605
10.5125	0.572
10.5535	0.536
10.5946	0.447
10.6357	0.336
10.6767	0.224
10.7178	0.138
10.7588	0.096
10.7999	0.085
10.8409	0.087
10.882	0.106
10.923	0.198
10.9641	0.358
11.0052	0.461
11.0462	0.49
11.0873	0.512
11.1283	0.603
11.1694	0.68
11.2104	0.734
11.2515	0.758
11.2925	0.766
11.3336	0.766
11.3747	0.766
11.4157	0.766
11.4568	0.766
11.4978	0.761
11.5389	0.746
11.5799	0.735
11.621	0.735
11.662	0.739
11.7031	0.746
11.7442	0.756
11.7852	0.775
11.8263	0.818
11.8673	0.847
11.9084	0.871
11.9494	0.893
11.9905	0.909
12.0315	0.919
12.0726	0.924
12.1137	0.929
12.1547	0.933
12.1958	0.934
12.2368	0.934
12.2779	0.934
12.3189	0.934
12.36	0.933
12.401	0.931
12.4421	0.927
12.4832	0.926
12.5242	0.922
12.5653	0.921
12.6063	0.919
12.6474	0.915
12.6884	0.912
12.7295	0.91
12.7705	0.912
12.8116	0.914
12.8527	0.917
12.8937	0.917
12.9348	0.915
12.9758	0.915
13.0169	0.91
13.0579	0.907
13.099	0.905
13.14	0.905
13.1811	0.898
13.2222	0.891
13.2632	0.89
13.3043	0.888
13.3453	0.886
13.3864	0.883
13.4274	0.873
13.4685	0.867
13.5095	0.862
13.5506	0.855
13.5916	0.845
13.6327	0.837
13.6738	0.828
13.7148	0.818
13.7559	0.806
13.7969	0.794
13.838	0.782
13.879	0.773
13.9201	0.766
13.9611	0.763
14.0022	0.759
14.0433	0.756
14.0843	0.754
14.1254	0.753
14.1664	0.751
14.2075	0.747
14.2485	0.742
14.2896	0.735
14.3306	0.73
14.3717	0.725
14.4128	0.72
14.4538	0.715
14.4949	0.708
14.5359	0.703
14.577	0.696
14.618	0.687
14.6591	0.679
14.7001	0.672
14.7412	0.663
14.7823	0.655
14.8233	0.644
14.8644	0.639
14.9054	0.627
14.9465	0.62
14.9875	0.612
15.0286	0.607
15.0696	0.591
15.1107	0.574
15.1518	0.566
15.1928	0.554
15.2339	0.54
15.2749	0.526
15.316	0.519
15.357	0.512
15.3981	0.502
15.4391	0.495
15.4802	0.488
15.5213	0.481
15.5623	0.473
15.6034	0.466
15.6444	0.463
15.6855	0.459
15.7265	0.454
15.7676	0.451
15.8086	0.445
15.8497	0.442
15.8908	0.44
