Infrared Spectrum: Ethane, 1,1,1-trichloro-
Formula: C2 H3 Cl3
CAS: 71-55-6
State: GAS (90 mmHg, N2 ADDED, TOTAL PRESSURE 600 mmHg)
Class: COBLENTZ
Instrument: DOW KBr FOREPRISM-GRATING
Instrument parameters: GRATING CHANGED AT 5.0, 7.5, 15.0 MICRON
Sampling: TRANSMISSION
Path length: 5 CM
Resolution: 2
Origin: DOW CHEMICAL COMPANY
1/CM	TRANSMITTANCE
458	0.857
467	0.8531
476	0.8487
485	0.8496
494	0.865
503	0.8548
512	0.7902
521	0.5774
530	0.3767
539	0.5398
548	0.7038
557	0.8083
566	0.8416
575	0.854
584	0.8711
593	0.8807
602	0.8812
611	0.8756
620	0.8757
629	0.8868
638	0.8977
647	0.8956
656	0.8863
665	0.8719
674	0.8204
683	0.6351
692	0.5134
701	0.457
710	0.0969
719	0.0021
728	0.0021
737	0.02
746	0.4136
755	0.5834
764	0.7121
773	0.7607
782	0.8007
791	0.8254
800	0.7685
809	0.788
818	0.8302
827	0.8489
836	0.8622
845	0.8747
854	0.8663
863	0.8246
872	0.7808
881	0.7324
890	0.7509
899	0.8638
908	0.8956
917	0.8999
926	0.8994
935	0.8966
944	0.889
953	0.8714
962	0.8628
971	0.8779
980	0.8849
989	0.8452
998	0.784
1007	0.7207
1016	0.7005
1025	0.8697
1034	0.8665
1043	0.8431
1052	0.7306
1061	0.2568
1070	0.0752
1079	0.0291
1088	0.0043
1097	0.0073
1106	0.1991
1115	0.419
1124	0.6102
1133	0.6942
1142	0.7276
1151	0.7642
1160	0.8799
1169	0.9035
1178	0.9033
1187	0.9078
1196	0.9058
1205	0.9031
1214	0.8971
1223	0.8695
1232	0.8298
1241	0.7628
1250	0.7412
1259	0.7835
1268	0.8326
1277	0.8676
1286	0.8671
1295	0.8524
1304	0.8633
1313	0.8727
1322	0.8793
1331	0.8844
1340	0.8893
1349	0.8907
1358	0.8872
1367	0.854
1376	0.6039
1385	0.5724
1394	0.5286
1403	0.7004
1412	0.8194
1421	0.7348
1430	0.6517
1439	0.6846
1448	0.5276
1457	0.4892
1466	0.6121
1475	0.7584
1484	0.8445
1493	0.8678
1502	0.8741
1511	0.8705
1520	0.8766
1529	0.8776
1538	0.8777
1547	0.8744
1556	0.8768
1565	0.8775
1574	0.8803
1583	0.8825
1592	0.8862
1601	0.8837
1610	0.8801
1619	0.8745
1628	0.8738
1637	0.8684
1646	0.8675
1655	0.8595
1664	0.8784
1673	0.8795
1682	0.8769
1691	0.8786
1700	0.8721
1709	0.8761
1718	0.8716
1727	0.8778
1736	0.8738
1745	0.8778
1754	0.8789
1763	0.8767
1772	0.8702
1781	0.8721
1790	0.865
1799	0.8632
1808	0.871
1817	0.8772
1826	0.8741
1835	0.876
1844	0.8791
1853	0.8801
1862	0.8799
1871	0.8792
1880	0.8794
1889	0.877
1898	0.8757
1907	0.8744
1916	0.8757
1925	0.8773
1934	0.8786
1943	0.8791
1952	0.8786
1961	0.8764
1970	0.8751
1979	0.876
1988	0.8762
1997	0.8755
2006	0.8738
2015	0.8713
2024	0.8732
2033	0.8765
2042	0.877
2051	0.877
2060	0.877
2069	0.8776
2078	0.8771
2087	0.8754
2096	0.873
2105	0.8681
2114	0.8585
2123	0.851
2132	0.8392
2141	0.8265
2150	0.831
2159	0.8502
2168	0.8631
2177	0.8713
2186	0.8764
2195	0.8797
2204	0.8814
2213	0.8823
2222	0.8824
2231	0.8826
2240	0.8826
2249	0.8825
2258	0.8825
2267	0.8824
2276	0.8822
2285	0.8829
2294	0.8857
2303	0.8895
2312	0.8933
2321	0.8973
2330	0.9021
2339	0.9071
2348	0.9111
2357	0.9106
2366	0.9093
2375	0.9013
2384	0.8882
2393	0.8828
2402	0.8807
2411	0.8792
2420	0.8763
2429	0.8698
2438	0.8534
2447	0.8274
2456	0.8037
2465	0.8337
2474	0.8632
2483	0.8767
2492	0.8797
2501	0.8799
2510	0.8797
2519	0.8797
2528	0.88
2537	0.88
2546	0.88
2555	0.8817
2564	0.884
2573	0.8873
2582	0.8889
2591	0.8894
2600	0.8892
2609	0.8879
2618	0.8863
2627	0.8847
2636	0.8828
2645	0.881
2654	0.8793
2663	0.8777
2672	0.8761
2681	0.8747
2690	0.8734
2699	0.8744
2708	0.8783
2717	0.8802
2726	0.8792
2735	0.8752
2744	0.8706
2753	0.8678
2762	0.8674
2771	0.8689
2780	0.8708
2789	0.871
2798	0.8707
2807	0.8648
2816	0.859
2825	0.8531
2834	0.8427
2843	0.8288
2852	0.7827
2861	0.7611
2870	0.6291
2879	0.7753
2888	0.7958
2897	0.7808
2906	0.8207
2915	0.8276
2924	0.8297
2933	0.8113
2942	0.747
2951	0.4911
2960	0.6167
2969	0.6839
2978	0.7135
2987	0.7638
2996	0.8047
3005	0.4725
3014	0.2855
3023	0.4472
3032	0.8552
3041	0.8621
3050	0.8625
3059	0.8621
3068	0.8616
3077	0.8614
3086	0.8612
3095	0.8612
3104	0.8612
3113	0.8611
3122	0.8611
3131	0.8609
3140	0.8608
3149	0.8607
3158	0.8605
3167	0.8597
3176	0.859
3185	0.8587
3194	0.8594
3203	0.8616
3212	0.8622
3221	0.8606
3230	0.8587
3239	0.8566
3248	0.8551
3257	0.8583
3266	0.8617
3275	0.86
3284	0.8549
3293	0.8542
3302	0.8589
3311	0.8611
3320	0.8607
3329	0.8571
3338	0.8489
3347	0.8386
3356	0.835
3365	0.8481
3374	0.8581
3383	0.8618
3392	0.8639
3401	0.8652
3410	0.8655
3419	0.8657
3428	0.8659
3437	0.8661
3446	0.8662
3455	0.8664
3464	0.8665
3473	0.8669
3482	0.8673
3491	0.8676
3500	0.868
3509	0.8683
3518	0.8691
3527	0.8699
3536	0.8707
3545	0.8715
3554	0.8722
3563	0.8726
3572	0.8731
3581	0.8734
3590	0.8727
3599	0.872
3608	0.8703
3617	0.871
3626	0.8708
3635	0.8702
3644	0.8696
3653	0.8675
3662	0.8718
3671	0.8715
3680	0.8701
3689	0.8701
3698	0.8703
3707	0.8695
3716	0.8681
3725	0.8662
3734	0.8678
3743	0.8719
3752	0.8741
3761	0.8749
3770	0.8747
3779	0.8736
3788	0.8731
