Infrared Spectrum: 1,1,1-TRICHLOROETHANE
Formula: C2 H3 Cl3
CAS: 71-55-6
Class: COBLENTZ
Instrument: Not specified, most likely a prism, grating, or hybrid spectrometer.
Sampling: TRANSMISSION
Path length: 0.0025 CM
Resolution: 4
Origin: W.T. BOLLETER
MICROMETERS	TRANSMITTANCE
14.419	0
14.4888	0.001
14.5586	0.003
14.6285	0.003
14.6983	0.003
14.7681	0.007
14.8379	0.017
14.9077	0.048
14.9775	0.101
15.0474	0.187
15.1172	0.253
15.187	0.339
15.2568	0.416
15.3266	0.467
15.3965	0.505
15.4663	0.528
15.5361	0.546
15.6059	0.578
15.6757	0.626
15.7455	0.671
15.8154	0.708
15.8852	0.732
15.955	0.746
16.0248	0.758
16.0946	0.766
16.1645	0.771
16.2343	0.775
16.3041	0.776
16.3739	0.776
16.4437	0.771
16.5135	0.767
16.5834	0.76
16.6532	0.751
16.723	0.744
16.7928	0.73
16.8626	0.712
16.9325	0.685
17.0023	0.648
17.0721	0.617
17.1419	0.598
17.2117	0.596
17.2815	0.598
17.3514	0.6
17.4212	0.601
17.491	0.591
17.5608	0.573
17.6306	0.557
17.7005	0.528
17.7703	0.51
17.8401	0.487
17.9099	0.473
17.9797	0.451
18.0495	0.425
18.1194	0.398
18.1892	0.357
18.259	0.317
18.3288	0.275
18.3986	0.248
18.4684	0.203
18.5383	0.167
18.6081	0.148
18.6779	0.116
18.7477	0.085
18.8175	0.069
18.8874	0.039
18.9572	0.025
19.027	0.014
19.0968	0.008
19.1666	0.008
19.2364	0.01
19.3063	0.019
19.3761	0.035
19.4459	0.064
19.5157	0.114
19.5855	0.18
19.6554	0.25
19.7252	0.328
19.795	0.398
19.8648	0.455
19.9346	0.498
20.0044	0.526
20.0743	0.564
20.1441	0.598
20.2139	0.616
20.2837	0.632
20.3535	0.646
20.4234	0.653
20.4932	0.66
20.563	0.662
20.6328	0.662
20.7026	0.657
20.7724	0.651
20.8423	0.648
20.9121	0.648
20.9819	0.651
21.0517	0.657
21.1215	0.662
21.1914	0.667
21.2612	0.673
21.331	0.683
21.4008	0.694
21.4706	0.7
21.5404	0.712
21.6103	0.721
21.6801	0.728
21.7499	0.735
21.8197	0.742
21.8895	0.748
21.9594	0.751
22.0292	0.757
22.099	0.757
22.1688	0.758
22.2386	0.762
22.3084	0.766
22.3783	0.771
22.4481	0.776
22.5179	0.78
22.5877	0.783
22.6575	0.789
22.7274	0.792
22.7972	0.798
22.867	0.801
22.9368	0.803
23.0066	0.808
23.0764	0.812
23.1463	0.816
23.2161	0.821
23.2859	0.823
23.3557	0.823
23.4255	0.825
23.4954	0.826
23.5652	0.826
23.635	0.83
23.7048	0.83
23.7746	0.828
23.8444	0.83
23.9143	0.828
23.9841	0.828
24.0539	0.83
24.1237	0.828
24.1935	0.828
24.2634	0.825
24.3332	0.821
24.403	0.81
24.4728	0.808
24.5426	0.8
24.6124	0.794
24.6823	0.789
24.7521	0.785
24.8219	0.78
24.8917	0.778
24.9615	0.775
25.0314	0.773
25.1012	0.767
25.171	0.766
25.2408	0.764
25.3106	0.758
25.3804	0.757
25.4503	0.755
25.5201	0.751
25.5899	0.75
25.6597	0.751
25.7295	0.748
25.7994	0.746
25.8692	0.739
25.939	0.733
26.0088	0.726
26.0786	0.719
26.1484	0.71
26.2183	0.708
26.2881	0.701
26.3579	0.698
26.4277	0.694
26.4975	0.689
26.5673	0.682
26.6372	0.673
26.707	0.662
26.7768	0.651
26.8466	0.646
26.9164	0.639
26.9863	0.632
27.0561	0.628
27.1259	0.625
27.1957	0.617
27.2655	0.61
27.3353	0.603
27.4052	0.6
27.475	0.594
27.5448	0.589
27.6146	0.576
27.6844	0.56
27.7543	0.551
27.8241	0.537
27.8939	0.521
27.9637	0.51
28.0335	0.496
28.1033	0.467
28.1732	0.439
28.243	0.407
28.3128	0.373
28.3826	0.328
28.4524	0.278
28.5223	0.219
28.5921	0.164
28.6619	0.114
28.7317	0.075
28.8015	0.039
28.8713	0.019
28.9412	0.01
29.011	0.007
29.0808	0.005
29.1506	0.003
29.2204	0.008
29.2903	0.008
29.3601	0.012
29.4299	0.025
29.4997	0.055
29.5695	0.101
29.6393	0.15
29.7092	0.214
29.779	0.276
29.8488	0.339
29.9186	0.401
29.9884	0.462
30.0583	0.503
30.1281	0.537
30.1979	0.558
30.2677	0.6
30.3375	0.625
30.4073	0.646
30.4772	0.657
30.547	0.666
30.6168	0.68
30.6866	0.689
30.7564	0.705
30.8263	0.719
30.8961	0.725
30.9659	0.728
31.0357	0.733
31.1055	0.737
31.1753	0.748
31.2452	0.758
31.315	0.766
31.3848	0.775
31.4546	0.778
31.5244	0.783
31.5943	0.787
31.6641	0.789
31.7339	0.789
31.8037	0.792
31.8735	0.8
31.9433	0.803
32.0132	0.81
32.083	0.812
32.1528	0.816
32.2226	0.821
32.2924	0.823
32.3623	0.826
32.4321	0.83
32.5019	0.833
32.5717	0.839
32.6415	0.846
32.7113	0.851
32.7812	0.864
32.851	0.878
32.9208	0.885
32.9906	0.88
33.0604	0.873
33.1303	0.857
33.2001	0.85
33.2699	0.848
33.3397	0.85
33.4095	0.855
33.4793	0.862
33.5492	0.873
33.619	0.878
33.6888	0.883
33.7586	0.889
33.8284	0.892
33.8983	0.894
33.9681	0.9
34.0379	0.905
34.1077	0.907
34.1775	0.907
34.2473	0.914
34.3172	0.916
34.387	0.917
34.4568	0.912
34.5266	0.905
34.5964	0.9
34.6662	0.889
34.7361	0.885
34.8059	0.883
34.8757	0.887
34.9455	0.887
35.0153	0.889
35.0852	0.892
35.155	0.891
35.2248	0.891
35.2946	0.891
35.3644	0.891
35.4342	0.891
35.5041	0.885
35.5739	0.882
35.6437	0.88
35.7135	0.876
35.7833	0.878
35.8532	0.876
35.923	0.873
35.9928	0.871
36.0626	0.862
36.1324	0.853
36.2022	0.851
36.2721	0.85
36.3419	0.844
36.4117	0.837
36.4815	0.835
36.5513	0.828
36.6212	0.819
36.691	0.81
36.7608	0.8
36.8306	0.789
36.9004	0.778
36.9702	0.764
37.0401	0.748
37.1099	0.721
37.1797	0.714
37.2495	0.703
37.3193	0.682
37.3892	0.673
37.459	0.667
37.5288	0.655
37.5986	0.646
37.6684	0.641
37.7382	0.637
37.8081	0.633
37.8779	0.628
37.9477	0.625
