Infrared Spectrum: Ethane, 1,1,1-trichloro-
Formula: C 2 H 3 Cl 3
CAS: 71-55-6
State: gas
Origin: Sadtler Research Labs Under US-EPA Contract
1/CM	ABSORBANCE
450	0.00978948
462	0.0042507
474	0.00412189
486	0.00309142
498	0.00631164
510	0.0179045
522	0.0352937
534	0.0314294
546	0.0151995
558	0.00837259
570	0.00592521
582	0
594	0.00322022
606	0.00334903
618	0.00347784
630	0.00450831
642	0.00128809
654	0.00244737
666	0.00412189
678	0.0297549
690	0.079604
702	0.221551
714	0.895609
726	1.13829
738	0.153283
750	0.0369682
762	0.0177756
774	0.0130097
786	0.00734211
798	0.00966067
810	0.0117216
822	0.0131385
834	0.00850139
846	0.00888782
858	0.0122369
870	0.020223
882	0.0297549
894	0.0211247
906	0.00309142
918	0.00309142
930	0.00360665
942	0.00476593
954	0.00489474
966	0.00489474
978	0.00463712
990	0.00927425
1002	0.0122369
1014	0.0124945
1026	0.00669807
1038	0.0104335
1050	0.0345208
1062	0.103434
1074	0.251178
1086	0.591491
1098	0.388359
1110	0.0972508
1122	0.060025
1134	0.0409613
1146	0.0305277
1158	0.0101759
1170	0.00257618
1182	0.00231856
1194	0.00180333
1206	0.00334903
1218	0.00450831
1230	0.00785735
1242	0.0173892
1254	0.0154571
1266	0.0117216
1278	0.00644045
1290	0.00476593
1302	0.00412189
1314	0.00412189
1326	0.00128809
1338	0.00334903
1350	0.00386427
1362	0.00798616
1374	0.0416053
1386	0.0785735
1398	0.0407036
1410	0.0100471
1422	0.0194502
1434	0.0207382
1446	0.0319446
1458	0.0345208
1470	0.0176468
1482	0.0057964
1494	0.00334903
1506	0.000644045
1518	0.00180333
1530	0.00193213
1542	0.00180333
1554	0.00553879
1566	0.00695569
1578	0.00734211
1590	0.00785735
1602	0.00656926
1614	0.00360665
1626	0.00128809
1638	0.00115928
1650	0.000772854
1662	0.00103047
1674	0.000644045
1686	0.000772854
1698	0.000386427
1710	0.00180333
1722	0.00218975
1734	0.00103047
1746	0.0014169
1758	0.00115928
1770	0.000901663
1782	0.00180333
1794	0.00193213
1806	0.00128809
1818	0.000901663
1830	0.000128809
1842	0.000515236
1854	0.000901663
1866	0.000386427
1878	0.000772854
1890	0.000772854
1902	0.0014169
1914	0.00154571
1926	0.00115928
1938	0.0014169
1950	0.00115928
1962	0.0014169
1974	0.0014169
1986	0.00167452
1998	0.00167452
2010	0.00128809
2022	0.000772854
2034	0.00128809
2046	0.00128809
2058	0.00128809
2070	0.0014169
2082	0.00167452
2094	0.00244737
2106	0.00334903
2118	0.00399308
2130	0.0042507
2142	0.00347784
2154	0.00193213
2166	0.0014169
2178	0.0014169
2190	0.00128809
2202	0.00115928
2214	0.0014169
2226	0.000772854
2238	0.00115928
2250	0.00103047
2262	0.00103047
2274	0.000901663
2286	0.000257618
2298	0.000386427
2310	0.000515236
2322	0.000128809
2334	0.0014169
2346	0.0056676
2358	0.00231856
2370	0.00695569
2382	0.00437951
2394	0.00309142
2406	0.00296261
2418	0.00322022
2430	0.00386427
2442	0.00644045
2454	0.00708449
2466	0.00476593
2478	0.0028338
2490	0.0028338
2502	0.00257618
2514	0.00270499
2526	0.00309142
2538	0.00257618
2550	0.00270499
2562	0.00270499
2574	0.0028338
2586	0.00309142
2598	0.00334903
2610	0.00296261
2622	0.00218975
2634	0.00270499
2646	0.00218975
2658	0.00412189
2670	0.00450831
2682	0.00463712
2694	0.00553879
2706	0.00463712
2718	0.0042507
2730	0.00463712
2742	0.0042507
2754	0.00515236
2766	0.00502355
2778	0.00502355
2790	0.00463712
2802	0.00489474
2814	0.0056676
2826	0.00824378
2838	0.0130097
2850	0.0239585
2862	0.0373546
2874	0.0230568
2886	0.0191925
2898	0.0218975
2910	0.0151995
2922	0.0184197
2934	0.0167452
2946	0.0253754
2958	0.0338768
2970	0.0428934
2982	0.0305277
2994	0.0181621
3006	0.0372258
3018	0.0389003
3030	0.0151995
3042	0.00450831
3054	0.00347784
3066	0.00450831
3078	0.00386427
3090	0.00373546
3102	0.00412189
3114	0.00334903
3126	0.00360665
3138	0.00463712
3150	0.00412189
3162	0.00399308
3174	0.00399308
3186	0.00373546
3198	0.00347784
3210	0.00270499
3222	0.00309142
3234	0.00386427
3246	0.00463712
3258	0.00334903
3270	0.0042507
3282	0.00347784
3294	0.00347784
3306	0.00296261
3318	0.00463712
3330	0.00231856
3342	0.00450831
3354	0.00450831
3366	0.00412189
3378	0.00270499
3390	0.00244737
3402	0.00296261
3414	0.00309142
3426	0.00373546
3438	0.00399308
3450	0.00347784
3462	0.00334903
3474	0.00244737
3486	0.00334903
3498	0.00437951
3510	0.00296261
3522	0.00373546
3534	0.0014169
3546	0.00206094
3558	0.0042507
3570	0.00437951
3582	0.00309142
3594	0.00257618
3606	0.00399308
3618	0.00373546
3630	0.000644045
3642	0.00218975
3654	0.00489474
3666	0.000901663
3678	0.00309142
3690	0.00644045
3702	0.00296261
3714	0.00502355
3726	0.00540998
3738	0.00450831
3750	0.00515236
3762	0.00206094
3774	0.00270499
3786	0.00244737
3798	0.00206094
3810	0.000901663
3822	0.00154571
3834	0.0028338
3846	0.00412189
3858	0.00669807
3870	0.00759973
3882	0.00373546
3894	0.00811497
3906	0.00244737
3918	0.00605402
3930	0.0115928
3942	0.00540998
3954	0.00386427
3966	0.0104335
