Infrared Spectrum: Butane, 2-bromo-
Formula: C 4 H 9 Br
CAS: 78-76-2
State: gas
Origin: Sadtler Research Labs Under US-EPA Contract
1/CM	ABSORBANCE
450	0
462	0.0144981
474	0.0204625
486	0.0262434
498	0.0196366
510	0.00816664
522	0.0312902
534	0.0676271
546	0.0722151
558	0.0196366
570	0.0199119
582	0.0292714
594	0.0334006
606	0.0307396
618	0.056983
630	0.0556066
642	0.0200954
654	0.00614792
666	0.004588
678	0.00440448
690	0.0041292
702	0.00302808
714	0.00155992
726	0.0032116
738	0.00293632
750	0.00403744
762	0.00752432
774	0.0243164
786	0.0632226
798	0.0716646
810	0.0474399
822	0.0449624
834	0.0654249
846	0.0614792
858	0.0326666
870	0.00679024
882	0.0036704
894	0.00302808
906	0.00357864
918	0.0055056
930	0.0121123
942	0.0337677
954	0.0570747
966	0.059644
978	0.0478987
990	0.0628556
1002	0.0734998
1014	0.0522114
1026	0.0209213
1038	0.0236741
1050	0.0400074
1062	0.0329418
1074	0.0119288
1086	0.00835016
1098	0.0159662
1110	0.0359699
1122	0.0512938
1134	0.0850615
1146	0.160672
1158	0.160764
1170	0.0634062
1182	0.0309231
1194	0.103138
1206	0.286842
1218	0.301248
1230	0.107818
1242	0.0305561
1254	0.0292714
1266	0.0704717
1278	0.12149
1290	0.140118
1302	0.0683612
1314	0.038998
1326	0.0291797
1338	0.0171591
1350	0.0205542
1362	0.0392733
1374	0.0988255
1386	0.150119
1398	0.118187
1410	0.0354194
1422	0.0326666
1434	0.0736833
1446	0.149477
1458	0.19655
1470	0.165994
1482	0.0863462
1494	0.029822
1506	0.0132134
1518	0.00880896
1530	0.004588
1542	0.00816664
1554	0.00880896
1566	0.00798312
1578	0.00853368
1590	0.00605616
1602	0.00422096
1614	0.0055056
1626	0.00431272
1638	0.00651496
1650	0.00605616
1662	0.00605616
1674	0.00679024
1686	0.00743256
1698	0.00605616
1710	0.0036704
1722	0.00348688
1734	0.00422096
1746	0.00394568
1758	0.0036704
1770	0.00211048
1782	0.00266104
1794	0.002294
1806	0.00211048
1818	0.00201872
1830	0.00192696
1842	0.00256928
1854	0.00192696
1866	0.00165168
1878	0.00119288
1890	0.00128464
1902	0.00146816
1914	0.00174344
1926	0.00146816
1938	0.00128464
1950	0.0013764
1962	0.00146816
1974	0.0013764
1986	0.0013764
1998	0.00119288
2010	0.00064232
2022	0.00027528
2034	9.176e-05
2046	0
2058	0.0004588
2070	0.00027528
2082	0.00036704
2094	0.00036704
2106	0.00055056
2118	0.00064232
2130	0.00064232
2142	0.00082584
2154	0.0013764
2166	0.00174344
2178	0.00192696
2190	0.00146816
2202	0.00165168
2214	0.002294
2226	0.0027528
2238	0.00192696
2250	0.00211048
2262	0.00211048
2274	0.00201872
2286	0.002294
2298	0.00357864
2310	0.00440448
2322	0.00477152
2334	0.00523032
2346	0.0055056
2358	0.00587264
2370	0.0032116
2382	0.00311984
2394	0.00403744
2406	0.00394568
2418	0.00330336
2430	0.00330336
2442	0.0036704
2454	0.00385392
2466	0.00311984
2478	0.00339512
2490	0.0036704
2502	0.00357864
2514	0.00311984
2526	0.00293632
2538	0.00256928
2550	0.00247752
2562	0.00339512
2574	0.00486328
2586	0.00541384
2598	0.00513856
2610	0.0041292
2622	0.0041292
2634	0.004588
2646	0.0041292
2658	0.00394568
2670	0.004588
2682	0.0055056
2694	0.006882
2706	0.00752432
2718	0.00807488
2730	0.0110112
2742	0.0167003
2754	0.0188108
2766	0.0132134
2778	0.0113782
2790	0.0125711
2802	0.0151404
2814	0.0209213
2826	0.0300973
2838	0.0506515
2850	0.0924941
2862	0.123876
2874	0.166453
2886	0.263351
2898	0.300973
2910	0.26381
2922	0.326115
2934	0.392825
2946	0.397596
2958	0.406497
2970	0.608369
2982	0.782805
2994	0.656543
3006	0.240686
3018	0.0739586
3030	0.027161
3042	0.0199119
3054	0.0178014
3066	0.0180767
3078	0.021013
3090	0.021013
3102	0.0171591
3114	0.0127546
3126	0.011103
3138	0.0111947
3150	0.0122958
3162	0.0133052
3174	0.0135805
3186	0.0136722
3198	0.0135805
3210	0.0122958
3222	0.0104606
3234	0.0073408
3246	0.0064232
3258	0.0064232
3270	0.0064232
3282	0.00605616
3294	0.00486328
3306	0.00431272
3318	0.00385392
3330	0.0036704
3342	0.0036704
3354	0.0041292
3366	0.00348688
3378	0.00311984
3390	0.00348688
3402	0.00302808
3414	0.00376216
3426	0.00403744
3438	0.00422096
3450	0.00440448
3462	0.0036704
3474	0.00394568
3486	0.00403744
3498	0.00376216
3510	0.00385392
3522	0.00394568
3534	0.0027528
3546	0.00357864
3558	0.00376216
3570	0.00293632
3582	0.00440448
3594	0.00376216
3606	0.00422096
3618	0.0032116
3630	0.00146816
3642	0.00403744
3654	0.0041292
3666	0.00440448
3678	0.00339512
3690	0.00449624
3702	0.00385392
3714	0.00348688
3726	0.00357864
3738	0.00385392
3750	0.0036704
3762	0.00330336
3774	0.0036704
3786	0.0036704
3798	0.00449624
3810	0.00302808
3822	0.00201872
3834	0.00330336
3846	0.0027528
3858	0.0041292
3870	0.00284456
3882	0.00449624
3894	0.00559736
3906	0.00339512
3918	0.0050468
3930	0.004588
3942	0.00559736
3954	0.00559736
3966	0.00449624
