Infrared Spectrum: 2-Bromobutane
Formula: C4 H9 Br
CAS: 78-76-2
State: SOLUTION (10% CCl4 FOR 3800-1340, 10% CS2 FOR 1340-430)
Class: COBLENTZ III
Instrument: DOW KBr FOREPRISM-GRATING
Instrument parameters: BLAZED AT 3.5, 12.0, 20.0 MICRON AND CHANGED AT 5.0, 7.5, 14.9 MICRON
Sampling: TRANSMISSION
Path length: 0.0116 CM, 0.0108 CM
Resolution: 2
Origin: DOW CHEMICAL COMPANY
1/CM	TRANSMITTANCE
423	0.8475
432	0.8486
441	0.8539
450	0.8607
459	0.8703
468	0.8755
477	0.8604
486	0.8546
495	0.9302
504	0.94
513	0.9351
522	0.9145
531	0.711
540	0.7339
549	0.9244
558	0.9536
567	0.9443
576	0.9097
585	0.8989
594	0.9428
603	0.906
612	0.8098
621	0.8873
630	0.9432
639	0.9545
648	0.9582
657	0.9648
666	0.9639
675	0.9739
684	0.9649
693	0.9647
702	0.9602
711	0.9579
720	0.9583
729	0.9549
738	0.9536
747	0.9532
756	0.9475
765	0.9396
774	0.9254
783	0.7558
792	0.6261
801	0.8968
810	0.9206
819	0.8571
828	0.9017
837	0.8752
846	0.6514
855	0.8982
864	0.9189
873	0.9387
882	0.9496
891	0.9545
900	0.9597
909	0.9586
918	0.9532
927	0.9462
936	0.9362
945	0.8777
954	0.6929
963	0.8027
972	0.8891
981	0.8698
990	0.7268
999	0.7925
1008	0.8387
1017	0.9038
1026	0.9293
1035	0.9229
1044	0.8896
1053	0.8751
1062	0.907
1071	0.9429
1080	0.9486
1089	0.9482
1098	0.9368
1107	0.9041
1116	0.8346
1125	0.8954
1134	0.8428
1143	0.5881
1152	0.4608
1161	0.8418
1170	0.912
1179	0.9066
1188	0.8711
1197	0.7001
1206	0.2234
1215	0.5935
1224	0.8714
1233	0.9138
1242	0.9089
1251	0.8975
1260	0.8664
1269	0.7353
1278	0.5274
1287	0.7319
1296	0.8116
1305	0.8796
1314	0.8286
1323	0.882
1332	0.8961
1341	0.8879
1350	0.886
1359	0.8589
1368	0.8482
1377	0.5025
1386	0.6466
1395	0.8566
1404	0.8645
1413	0.8483
1422	0.8299
1431	0.727
1440	0.5851
1449	0.4621
1458	0.2975
1467	0.4818
1476	0.7966
1485	0.8446
1494	0.8523
1503	0.8517
1512	0.8524
1521	0.847
1530	0.8215
1539	0.7763
1548	0.7475
1557	0.7608
1566	0.7625
1575	0.827
1584	0.8299
1593	0.845
1602	0.9181
1611	0.9146
1620	0.9068
1629	0.9102
1638	0.91
1647	0.9103
1656	0.914
1665	0.9119
1674	0.9086
1683	0.9096
1692	0.912
1701	0.9131
1710	0.9134
1719	0.913
1728	0.913
1737	0.9134
1746	0.9138
1755	0.9146
1764	0.9138
1773	0.9137
1782	0.9151
1791	0.9146
1800	0.9142
1809	0.9161
1818	0.9161
1827	0.9141
1836	0.9148
1845	0.9153
1854	0.9161
1863	0.9176
1872	0.9189
1881	0.9186
1890	0.9179
1899	0.9192
1908	0.9174
1917	0.9172
1926	0.917
1935	0.9168
1944	0.9155
1953	0.9162
1962	0.9176
1971	0.9162
1980	0.9178
1989	0.9176
1998	0.8994
2007	0.9322
2016	0.9328
2025	0.9302
2034	0.9281
2043	0.9273
2052	0.9302
2061	0.9308
2070	0.9323
2079	0.9326
2088	0.9329
2097	0.9316
2106	0.9329
2115	0.9326
2124	0.9324
2133	0.9321
2142	0.9319
2151	0.9316
2160	0.9314
2169	0.9326
2178	0.9325
2187	0.9312
2196	0.9314
2205	0.9285
2214	0.9255
2223	0.924
2232	0.9218
2241	0.921
2250	0.9202
2259	0.9224
2268	0.923
2277	0.9236
2286	0.9228
2295	0.9224
2304	0.9221
2313	0.9253
2322	0.9293
2331	0.9282
2340	0.9306
2349	0.9315
2358	0.9324
2367	0.9309
2376	0.9313
2385	0.9234
2394	0.9188
2403	0.9182
2412	0.9194
2421	0.9212
2430	0.9228
2439	0.9243
2448	0.9261
2457	0.9273
2466	0.9276
2475	0.9263
2484	0.9236
2493	0.9226
2502	0.9219
2511	0.9212
2520	0.9203
2529	0.9196
2538	0.9188
2547	0.9178
2556	0.9167
2565	0.9151
2574	0.9137
2583	0.9138
2592	0.9143
2601	0.9148
2610	0.9152
2619	0.9158
2628	0.9167
2637	0.9161
2646	0.9184
2655	0.9193
2664	0.9177
2673	0.9177
2682	0.9176
2691	0.9153
2700	0.9125
2709	0.9079
2718	0.9031
2727	0.894
2736	0.8829
2745	0.8935
2754	0.9043
2763	0.9064
2772	0.9027
2781	0.8973
2790	0.8944
2799	0.8874
2808	0.8713
2817	0.8531
2826	0.8362
2835	0.7961
2844	0.6472
2853	0.7512
2862	0.6653
2871	0.4924
2880	0.3634
2889	0.559
2898	0.5615
2907	0.5536
2916	0.4134
2925	0.3348
2934	0.3497
2943	0.3858
2952	0.4881
2961	0.3293
2970	0.087
2979	0.0749
2988	0.1733
2997	0.3338
3006	0.7052
3015	0.7945
3024	0.8464
3033	0.8801
3042	0.8965
3051	0.8948
3060	0.8981
3069	0.9014
3078	0.9021
3087	0.9035
3096	0.9073
3105	0.9055
3114	0.9065
3123	0.9084
3132	0.9103
3141	0.9098
3150	0.9108
3159	0.9098
3168	0.9067
3177	0.9049
3186	0.9036
3195	0.9025
3204	0.8992
3213	0.8992
3222	0.8996
3231	0.9026
3240	0.9055
3249	0.9098
3258	0.9127
3267	0.9148
3276	0.9151
3285	0.915
3294	0.9154
3303	0.9159
3312	0.918
3321	0.9172
3330	0.9179
3339	0.9184
3348	0.9191
3357	0.9193
3366	0.9189
3375	0.9183
3384	0.9178
3393	0.9173
3402	0.9167
3411	0.9161
3420	0.9158
3429	0.9155
3438	0.9153
3447	0.915
3456	0.9148
3465	0.9145
3474	0.9142
3483	0.9136
3492	0.9133
3501	0.9129
3510	0.9125
3519	0.9121
3528	0.9117
3537	0.9122
3546	0.9122
3555	0.9115
3564	0.9098
3573	0.9106
3582	0.9102
3591	0.9097
3600	0.9091
3609	0.9095
3618	0.9095
3627	0.9094
3636	0.9079
3645	0.9078
3654	0.9077
3663	0.9076
3672	0.9075
3681	0.9076
3690	0.9092
3699	0.9106
3708	0.9108
3717	0.9093
3726	0.9098
3735	0.9105
3744	0.9098
3753	0.9105
3762	0.9114
3771	0.912
3780	0.9127
3789	0.9128
3798	0.9115
3807	0.9129
