Infrared Spectrum: n-PENTANE
Formula: C5 H12
CAS: 109-66-0
State: GAS (6 mmHg, N2 ADDED, TOTAL PRESSURE 600 mmHg)
Boiling point: 36 C
Class: COBLENTZ
Instrument: PERKIN-ELMER 180
Instrument parameters: I0 MODE
Sampling: TRANSMISSION
Path length: 18 CM
Resolution: 1 CM^-^1 AT 4000
Origin: DOW CHEMICAL COMPANY
1/CM	TRANSMITTANCE
401.524	0.579
410.667	0.6209
419.81	0.673
428.953	0.7109
438.096	0.743
447.239	0.761
456.382	0.785
465.525	0.8
474.668	0.813
483.81	0.828
492.953	0.838
502.096	0.841
511.239	0.846
520.382	0.846
529.525	0.849
538.668	0.852
547.811	0.852
556.954	0.852
566.097	0.854
575.24	0.857
584.383	0.851
593.526	0.852
602.669	0.854
611.812	0.852
620.955	0.852
630.097	0.852
639.24	0.855
648.383	0.861
657.526	0.858
666.669	0.851
675.812	0.852
684.955	0.855
694.098	0.851
703.241	0.846
712.384	0.838
721.527	0.825
730.67	0.819
739.813	0.82
748.956	0.831
758.099	0.832
767.242	0.834
776.384	0.834
785.527	0.838
794.67	0.84
803.813	0.843
812.956	0.841
822.099	0.844
831.242	0.843
840.385	0.84
849.528	0.84
858.671	0.835
867.814	0.832
876.957	0.841
886.1	0.84
895.243	0.834
904.386	0.826
913.529	0.817
922.671	0.823
931.814	0.835
940.957	0.849
950.1	0.846
959.243	0.851
968.386	0.848
977.529	0.849
986.672	0.841
995.815	0.841
1004.96	0.838
1014.1	0.834
1023.24	0.829
1032.39	0.831
1041.53	0.834
1050.67	0.837
1059.82	0.834
1068.96	0.831
1078.1	0.831
1087.24	0.834
1096.39	0.837
1105.53	0.837
1114.67	0.832
1123.82	0.826
1132.96	0.826
1142.1	0.829
1151.24	0.825
1160.39	0.832
1169.53	0.838
1178.67	0.838
1187.82	0.838
1196.96	0.832
1206.1	0.834
1215.25	0.832
1224.39	0.829
1233.53	0.829
1242.67	0.828
1251.82	0.826
1260.96	0.823
1270.1	0.826
1279.25	0.831
1288.39	0.834
1297.53	0.829
1306.67	0.823
1315.82	0.825
1324.96	0.826
1334.1	0.811
1343.25	0.81
1352.39	0.799
1361.53	0.775
1370.68	0.738
1379.82	0.724
1388.96	0.731
1398.1	0.778
1407.25	0.806
1416.39	0.808
1425.53	0.796
1434.68	0.752
1443.82	0.699
1452.96	0.6349
1462.1	0.592
1471.25	0.624
1480.39	0.686
1489.53	0.75
1498.68	0.7851
1507.82	0.817
1516.96	0.831
1526.11	0.832
1535.25	0.831
1544.39	0.829
1553.53	0.828
1562.68	0.823
1571.82	0.816
1580.96	0.811
1590.11	0.813
1599.25	0.816
1608.39	0.819
1617.53	0.82
1626.68	0.82
1635.82	0.816
1644.96	0.808
1654.11	0.817
1663.25	0.829
1672.39	0.831
1681.54	0.832
1690.68	0.837
1699.82	0.835
1708.96	0.834
1718.11	0.828
1727.25	0.829
1736.39	0.826
1745.54	0.829
1754.68	0.832
1763.82	0.834
1772.96	0.837
1782.11	0.838
1791.25	0.84
1800.39	0.84
1809.54	0.841
1818.68	0.841
1827.82	0.843
1836.97	0.843
1846.11	0.844
1855.25	0.844
1864.39	0.843
1873.54	0.843
1882.68	0.843
1891.82	0.84
1900.97	0.84
1910.11	0.84
1919.25	0.84
1928.39	0.844
1937.54	0.841
1946.68	0.841
1955.82	0.84
1964.97	0.841
1974.11	0.84
1983.25	0.84
1992.4	0.84
2001.54	0.84
2010.68	0.84
2019.82	0.8389
2028.97	0.8374
2038.11	0.837
2047.25	0.837
2056.4	0.837
2065.54	0.837
2074.68	0.837
2083.82	0.837
2092.97	0.837
2102.11	0.838
2111.25	0.8399
2120.4	0.84
2129.54	0.837
2138.68	0.84
2147.83	0.8399
2156.97	0.837
2166.11	0.837
2175.25	0.835
2184.4	0.835
2193.54	0.8355
2202.68	0.837
2211.83	0.837
2220.97	0.8346
2230.11	0.8328
2239.25	0.837
2248.4	0.8354
2257.54	0.838
2266.68	0.831
2275.83	0.831
2284.97	0.835
2294.11	0.8327
2303.26	0.829
2312.4	0.834
2321.54	0.8295
2330.68	0.828
2339.83	0.8264
2348.97	0.8307
2358.11	0.8262
2367.26	0.826
2376.4	0.829
2385.54	0.834
2394.68	0.8309
2403.83	0.826
2412.97	0.828
2422.11	0.8281
2431.26	0.831
2440.4	0.829
2449.54	0.826
2458.68	0.8283
2467.83	0.829
2476.97	0.831
2486.11	0.831
2495.26	0.831
2504.4	0.829
2513.54	0.829
2522.69	0.829
2531.83	0.829
2540.97	0.829
2550.11	0.829
2559.26	0.8267
2568.4	0.8266
2577.54	0.825
2586.69	0.823
2595.83	0.8204
2604.97	0.8173
2614.11	0.813
2623.26	0.814
2632.4	0.8159
2641.54	0.814
2650.69	0.817
2659.83	0.817
2668.97	0.8158
2678.12	0.813
2687.26	0.8113
2696.4	0.813
2705.54	0.813
2714.69	0.811
2723.83	0.8094
2732.97	0.8013
2742.12	0.7949
2751.26	0.7948
2760.4	0.8009
2769.54	0.8025
2778.69	0.8025
2787.83	0.7983
2796.97	0.7948
2806.12	0.7885
2815.26	0.78
2824.4	0.7633
2833.55	0.7255
2842.69	0.6689
2851.83	0.5631
2860.97	0.4383
2870.12	0.3372
2879.26	0.2387
2888.4	0.2607
2897.55	0.2718
2906.69	0.3159
2915.83	0.2565
2924.97	0.1803
2934.12	0.1086
2943.26	0.1038
2952.4	0.1008
2961.55	0.0637
2970.69	0.0512
2979.83	0.088
2988.98	0.2517
2998.12	0.4773
3007.26	0.7399
3016.4	0.7659
3025.55	0.7725
3034.69	0.777
3043.83	0.7785
3052.98	0.7802
3062.12	0.7832
3071.26	0.7863
3080.4	0.788
3089.55	0.793
3098.69	0.7985
3107.83	0.7992
3116.98	0.799
3126.12	0.8
3135.26	0.8
3144.41	0.7971
3153.55	0.7941
3162.69	0.791
3171.83	0.791
3180.98	0.7898
3190.12	0.788
3199.26	0.7883
3208.41	0.7932
3217.55	0.7962
3226.69	0.797
3235.83	0.797
3244.98	0.797
3254.12	0.796
3263.26	0.796
3272.41	0.794
3281.55	0.791
3290.69	0.79
3299.84	0.791
3308.98	0.788
3318.12	0.787
3327.26	0.787
3336.41	0.7894
3345.55	0.79
3354.69	0.787
3363.84	0.785
3372.98	0.785
3382.12	0.784
3391.26	0.782
3400.41	0.781
3409.55	0.782
3418.69	0.787
3427.84	0.79
3436.98	0.79
3446.12	0.7901
3455.27	0.7913
3464.41	0.796
3473.55	0.797
3482.69	0.799
3491.84	0.8
3500.98	0.802
3510.12	0.802
3519.27	0.8038
3528.41	0.806
3537.55	0.8069
3546.69	0.81
3555.84	0.81
3564.98	0.81
3574.12	0.81
3583.27	0.81
3592.41	0.81
3601.55	0.81
3610.7	0.81
3619.84	0.81
3628.98	0.81
3638.12	0.81
3647.27	0.81
3656.41	0.81
3665.55	0.8061
3674.7	0.806
3683.84	0.806
3692.98	0.806
3702.12	0.808
3711.27	0.8083
3720.41	0.81
3729.55	0.8096
3738.7	0.808
3747.84	0.808
3756.98	0.808
3766.13	0.806
3775.27	0.806
3784.41	0.806
3793.55	0.806
3802.7	0.806
3811.84	0.806
3820.98	0.806
3830.13	0.806
3839.27	0.805
3848.41	0.805
3857.55	0.805
3866.7	0.8035
3875.84	0.803
3884.98	0.8046
3894.13	0.805
3903.27	0.8059
3912.41	0.808
3921.56	0.808
3930.7	0.808
3939.84	0.808
3948.98	0.8049
3958.13	0.8032
3967.27	0.805
3976.41	0.808
3985.56	0.8076
3994.7	0.8052
