Infrared Spectrum: n-PENTANE
Formula: C5 H12
CAS: 109-66-0
State: VAPOR (440 mmHg, N2 ADDED, TOTAL PRESSURE 600 mmHg)
Boiling point: 36 C
Class: COBLENTZ
Instrument: PERKIN-ELMER 180
Sampling: TRANSMISSION
Path length: 7 CM
Resolution: 2 CM^-^1
Origin: DOW CHEMICAL COMPANY
1/CM	TRANSMITTANCE
249.716	0.099
259.952	0.004
270.187	0.002
280.423	0.002
290.659	0.002
300.894	0.002
311.13	0.002
321.365	0.004
331.601	0.032
341.837	0.087
352.072	0.141
362.308	0.2229
372.544	0.301
382.779	0.386
393.015	0.4629
403.25	0.568
413.486	0.642
423.722	0.7139
433.957	0.768
444.193	0.816
454.429	0.844
464.664	0.864
474.9	0.89
485.135	0.932
495.371	0.954
505.607	0.953
515.842	0.956
526.078	0.953
536.314	0.96
546.549	0.966
556.785	0.975
567.02	0.985
577.256	0.992
587.492	0.989
597.727	0.988
607.963	0.995
618.199	0.965
628.434	0.978
638.67	0.979
648.905	0.951
659.141	0.975
669.377	0.976
679.612	0.963
689.848	0.944
700.084	0.876
710.319	0.7361
720.555	0.52
730.79	0.36
741.026	0.395
751.262	0.553
761.497	0.626
771.733	0.686
781.969	0.769
792.204	0.879
802.44	0.922
812.675	0.938
822.911	0.935
833.147	0.8901
843.382	0.826
853.618	0.733
863.854	0.634
874.089	0.645
884.325	0.689
894.561	0.635
904.796	0.4731
915.032	0.3331
925.267	0.397
935.503	0.6348
945.739	0.8539
955.974	0.877
966.21	0.864
976.446	0.835
986.681	0.779
996.917	0.755
1007.15	0.705
1017.39	0.639
1027.62	0.623
1037.86	0.666
1048.09	0.775
1058.33	0.775
1068.57	0.723
1078.8	0.709
1089.04	0.797
1099.27	0.852
1109.51	0.848
1119.74	0.819
1129.98	0.669
1140.22	0.586
1150.45	0.578
1160.69	0.677
1170.92	0.759
1181.16	0.816
1191.39	0.87
1201.63	0.881
1211.86	0.877
1222.1	0.844
1232.34	0.744
1242.57	0.698
1252.81	0.625
1263.04	0.556
1273.28	0.568
1283.51	0.695
1293.75	0.658
1303.99	0.583
1314.22	0.567
1324.46	0.587
1334.69	0.44
1344.93	0.405
1355.16	0.362
1365.4	0.1949
1375.63	0.036
1385.87	0.032
1396.11	0.126
1406.34	0.3571
1416.58	0.51
1426.81	0.244
1437.05	0.0829
1447.28	0.008
1457.52	0.004
1467.76	0.004
1477.99	0.005
1488.23	0.034
1498.46	0.223
1508.7	0.4623
1518.93	0.698
1529.17	0.772
1539.41	0.769
1549.64	0.75
1559.88	0.702
1570.11	0.676
1580.35	0.674
1590.58	0.706
1600.82	0.752
1611.05	0.797
1621.29	0.835
1631.53	0.862
1641.76	0.868
1652	0.855
1662.23	0.833
1672.47	0.817
1682.7	0.833
1692.94	0.854
1703.18	0.87
1713.41	0.889
1723.65	0.896
1733.88	0.9
1744.12	0.906
1754.35	0.918
1764.59	0.935
1774.82	0.934
1785.06	0.932
1795.3	0.935
1805.53	0.948
1815.77	0.951
1826	0.954
1836.24	0.951
1846.47	0.944
1856.71	0.943
1866.95	0.943
1877.18	0.938
1887.42	0.932
1897.65	0.921
1907.89	0.915
1918.12	0.916
1928.36	0.924
1938.59	0.937
1948.83	0.948
1959.07	0.947
1969.3	0.951
1979.54	0.95
1989.77	0.944
2000.01	0.935
2010.24	0.9273
2020.48	0.9112
2030.72	0.8696
2040.95	0.8663
2051.19	0.8909
2061.42	0.9008
2071.66	0.9074
2081.89	0.9163
2092.13	0.922
2102.36	0.925
2112.6	0.9221
2122.84	0.917
2133.07	0.913
2143.31	0.8937
2153.54	0.8865
2163.78	0.8671
2174.01	0.864
2184.25	0.8677
2194.49	0.8716
2204.72	0.873
2214.96	0.87
2225.19	0.8641
2235.43	0.867
2245.66	0.87
2255.9	0.8689
2266.13	0.8668
2276.37	0.8615
2286.61	0.842
2296.84	0.8375
2307.08	0.8328
2317.31	0.8262
2327.55	0.8157
2337.78	0.8166
2348.02	0.822
2358.26	0.8201
2368.49	0.812
2378.73	0.813
2388.96	0.8164
2399.2	0.7995
2409.43	0.766
2419.67	0.773
2429.9	0.8214
2440.14	0.8523
2450.38	0.8385
2460.61	0.832
2470.85	0.8348
2481.08	0.8393
2491.32	0.846
2501.55	0.8563
2511.79	0.8667
2522.03	0.8513
2532.26	0.8407
2542.5	0.841
2552.73	0.842
2562.97	0.8169
2573.2	0.7778
2583.44	0.7225
2593.67	0.6708
2603.91	0.6209
2614.15	0.5915
2624.38	0.594
2634.62	0.5981
2644.85	0.604
2655.09	0.6034
2665.32	0.5726
2675.56	0.5484
2685.8	0.5568
2696.03	0.5582
2706.27	0.5476
2716.5	0.5328
2726.74	0.4832
2736.97	0.4053
2747.21	0.3355
2757.44	0.3664
2767.68	0.4506
2777.92	0.4715
2788.15	0.4008
2798.39	0.3269
2808.62	0.2555
2818.86	0.1756
2829.09	0.0595
2839.33	0.004
2849.57	0.0011
2859.8	0.0015
2870.04	0.001
2880.27	0.001
2890.51	0.002
2900.74	0.002
2910.98	0.002
2921.21	0.002
2931.45	0.002
2941.69	0.002
2951.92	0.002
2962.16	0.002
2972.39	0.002
2982.63	0.002
2992.86	0.002
3003.1	0.0956
3013.34	0.1752
3023.57	0.2574
3033.81	0.281
3044.04	0.3039
3054.28	0.3271
3064.51	0.3654
3074.75	0.3972
3084.98	0.4445
3095.22	0.5084
3105.46	0.5729
3115.69	0.5881
3125.93	0.5893
3136.16	0.5681
3146.4	0.5434
3156.63	0.5242
3166.87	0.5005
3177.11	0.4875
3187.34	0.486
3197.58	0.5408
3207.81	0.6183
3218.05	0.6822
3228.28	0.7339
3238.52	0.7542
3248.75	0.7763
3258.99	0.806
3269.23	0.819
3279.46	0.8169
3289.7	0.809
3299.93	0.8138
3310.17	0.8206
3320.4	0.826
3330.64	0.829
3340.88	0.8348
3351.11	0.8262
3361.35	0.7929
3371.58	0.788
3381.82	0.8196
3392.05	0.8339
3402.29	0.842
3412.52	0.841
3422.76	0.835
3433	0.8376
3443.23	0.847
3453.47	0.8598
3463.7	0.8653
3473.94	0.871
3484.17	0.868
3494.41	0.8701
3504.65	0.871
3514.88	0.871
3525.12	0.873
3535.35	0.8737
3545.59	0.877
3555.82	0.876
3566.06	0.8713
3576.29	0.868
3586.53	0.8601
3596.77	0.8441
3607	0.8289
3617.24	0.8203
3627.47	0.8039
3637.71	0.8
3647.94	0.798
3658.18	0.8007
3668.42	0.8078
3678.65	0.8049
3688.89	0.789
3699.12	0.7979
3709.36	0.822
3719.59	0.8142
3729.83	0.799
3740.06	0.7969
3750.3	0.7934
3760.54	0.7775
3770.77	0.766
3781.01	0.7686
3791.24	0.7923
3801.48	0.8019
3811.71	0.81
3821.95	0.8136
3832.19	0.811
3842.42	0.8086
3852.66	0.7939
3862.89	0.7755
3873.13	0.7518
3883.36	0.7447
3893.6	0.7449
3903.83	0.7611
3914.07	0.7731
3924.31	0.7914
3934.54	0.8
3944.78	0.801
3955.01	0.8
3965.25	0.794
3975.48	0.791
3985.72	0.7839
3995.96	0.7732
