Infrared Spectrum: Pentane
Formula: C 5 H 12
CAS: 109-66-0
State: gas
Origin: Sadtler Research Labs Under US-EPA Contract
1/CM	ABSORBANCE
450	0.0042904
462	0.00381951
474	0.00381951
486	0.0035579
498	0.00240681
510	0.000994118
522	0.00340093
534	0.00408112
546	0.00120341
558	0.00204056
570	0.00345325
582	0.00423808
594	0.00256378
606	0.00219752
618	0.00230217
630	0.0042904
642	0.00293003
654	0.00251146
666	0.00198824
678	0.00298235
690	0.00361022
702	0.0047613
714	0.00654025
726	0.0105167
738	0.00910403
750	0.00748205
762	0.00606935
774	0.00502291
786	0.00251146
798	0.00224985
810	0.00256378
822	0.00350557
834	0.00251146
846	0.00387183
858	0.00507523
870	0.00575542
882	0.00575542
894	0.00779598
906	0.00978421
918	0.00967957
930	0.00586006
942	0.00272074
954	0.00209288
966	0.00219752
978	0.00303468
990	0.003087
1002	0.00313932
1014	0.00423808
1026	0.00470898
1038	0.00408112
1050	0.00303468
1062	0.00303468
1074	0.00371486
1086	0.003087
1098	0.00198824
1110	0.00204056
1122	0.003087
1134	0.00434273
1146	0.00481362
1158	0.00329629
1170	0.00230217
1182	0.00209288
1194	0.00130805
1206	0.00183127
1218	0.00230217
1230	0.00329629
1242	0.00376718
1254	0.00465666
1266	0.0052322
1278	0.00507523
1290	0.00465666
1302	0.00601703
1314	0.00659257
1326	0.00753437
1338	0.00915635
1350	0.00973189
1362	0.0114062
1374	0.0198824
1386	0.0245913
1398	0.0233879
1410	0.0117725
1422	0.010883
1434	0.0182081
1446	0.0348465
1458	0.0521127
1470	0.0538393
1482	0.0410204
1494	0.0234403
1506	0.0113539
1518	0.00633096
1530	0.00465666
1542	0.00298235
1554	0.00235449
1566	0.00298235
1578	0.00282539
1590	0.00230217
1602	0.00230217
1614	0.00183127
1626	0.00198824
1638	0.00188359
1650	0.00162198
1662	0.0021452
1674	0.00209288
1686	0.00146502
1698	0.00115108
1710	0.00120341
1722	0.00136037
1734	0.000941796
1746	0.000889474
1758	0.00078483
1770	0.000418576
1782	0.000732508
1794	0.000627864
1806	0.000627864
1818	0.000575542
1830	0.000156966
1842	0.000680186
1854	0.00052322
1866	0.000627864
1878	0.000470898
1890	0.00052322
1902	0.00052322
1914	0.000470898
1926	0.000418576
1938	0.000470898
1950	0.000470898
1962	0.000366254
1974	0.000418576
1986	0.000366254
1998	0.000366254
2010	0.000313932
2022	0.000418576
2034	0.000313932
2046	0.00026161
2058	0.00026161
2070	0.000313932
2082	0.000366254
2094	0.000313932
2106	0.000313932
2118	0.000313932
2130	0.000209288
2142	0.000732508
2154	0.000837152
2166	0.00078483
2178	0.000732508
2190	0.00026161
2202	0.000680186
2214	0.000680186
2226	0.000732508
2238	0.000732508
2250	0.000732508
2262	0.000575542
2274	0.000889474
2286	0.000994118
2298	0.00146502
2310	0.00146502
2322	0.0016743
2334	0.00230217
2346	0.00287771
2358	0
2370	0.00402879
2382	0.00366254
2394	0.00141269
2406	0.00136037
2418	0.00136037
2430	0.00146502
2442	0.00146502
2454	0.00141269
2466	0.00141269
2478	0.00146502
2490	0.00151734
2502	0.00204056
2514	0.00151734
2526	0.00156966
2538	0.00156966
2550	0.00156966
2562	0.00115108
2574	0.0021452
2586	0.00313932
2598	0.00366254
2610	0.00361022
2622	0.00413344
2634	0.00418576
2646	0.00413344
2658	0.00470898
2670	0.00517988
2682	0.00517988
2694	0.00517988
2706	0.00575542
2718	0.0057031
2730	0.00769133
2742	0.00931332
2754	0.0095226
2766	0.00852849
2778	0.00920867
2790	0.0113016
2802	0.0138653
2814	0.0184173
2826	0.0278876
2838	0.0494966
2850	0.0894706
2862	0.145612
2874	0.215724
2886	0.231159
2898	0.231316
2910	0.246227
2922	0.332297
2934	0.429145
2946	0.449551
2958	0.488217
2970	0.475031
2982	0.364161
2994	0.150792
3006	0.0592285
3018	0.0278876
3030	0.0199347
3042	0.0171616
3054	0.0156443
3066	0.013656
3078	0.012191
3090	0.0111969
3102	0.00931332
3114	0.00837152
3126	0.00790062
3138	0.00769133
3150	0.00748205
3162	0.00695883
3174	0.00695883
3186	0.00701115
3198	0.00622632
3210	0.00470898
3222	0.00361022
3234	0.00350557
3246	0.00266842
3258	0.00240681
3270	0.00277307
3282	0.00177895
3294	0.00177895
3306	0.00172663
3318	0.00188359
3330	0.00141269
3342	0.00146502
3354	0.00141269
3366	0.00188359
3378	0.00156966
3390	0.00156966
3402	0.00052322
3414	0.00109876
3426	0.00172663
3438	0.00162198
3450	0.0021452
3462	0.00188359
3474	0.00177895
3486	0.00120341
3498	0.000941796
3510	0.00146502
3522	0.00172663
3534	0.00193591
3546	0.00193591
3558	0.00183127
3570	0.00293003
3582	0.00188359
3594	0.00198824
3606	0.00198824
3618	0.00251146
3630	0.00240681
3642	0.00256378
3654	0.00366254
3666	0.00303468
3678	0.00329629
3690	0.00256378
3702	0.00272074
3714	0.00293003
3726	0.00240681
3738	0.00277307
3750	0.00319164
3762	0.00381951
3774	0.00418576
3786	0.00313932
3798	0.00287771
3810	0.00334861
3822	0.00293003
3834	0.00287771
3846	0.00272074
3858	0.00486595
3870	0.00272074
3882	0.00371486
3894	0.00371486
3906	0.00449969
3918	0.00376718
3930	0.00319164
3942	0.00303468
3954	0.00366254
3966	0.00329629
