Infrared Spectrum: Butane
Formula: C 4 H 10
CAS: 106-97-8
State: gas
Origin: Sadtler Research Labs Under US-EPA Contract
1/CM	ABSORBANCE
450	0.000362082
462	0.0103797
474	0.00060347
486	0.00446568
498	0.00325874
510	0.00313804
522	0.00579331
534	0.00156902
546	0.00494845
558	0.00313804
570	0.00337943
582	0.00374151
594	0.00217249
606	0.0020518
618	0.00313804
630	0.00350013
642	0.00325874
654	0.00265527
666	0.0020518
678	0.00386221
690	0.00337943
702	0.00555192
714	0.00881066
726	0.0127936
738	0.0158109
750	0.0176213
762	0.0156902
774	0.0127936
786	0.00832789
798	0.00627609
810	0.00434498
822	0.00301735
834	0.00265527
846	0.00265527
858	0.00241388
870	0.00265527
882	0.00144833
894	0.00253457
906	0.00181041
918	0.00350013
930	0.00663817
942	0.0143626
954	0.0251044
966	0.0306563
978	0.0269148
990	0.0188283
1002	0.0101383
1014	0.00591401
1026	0.00350013
1038	0.00313804
1050	0.00241388
1062	0.00241388
1074	0.00253457
1086	0.00241388
1098	0.00301735
1110	0.0041036
1122	0.00615539
1134	0.00663817
1146	0.00615539
1158	0.00337943
1170	0.00217249
1182	0.00253457
1194	0.0020518
1206	0.00241388
1218	0.00277596
1230	0.00313804
1242	0.00458637
1254	0.00470707
1266	0.00700025
1278	0.0119487
1290	0.0132763
1302	0.014604
1314	0.0106211
1326	0.0108625
1338	0.0125522
1350	0.0144833
1362	0.0240181
1374	0.0447775
1386	0.0521398
1398	0.0627609
1410	0.0288459
1422	0.0284838
1434	0.0465879
1446	0.07652
1458	0.104521
1470	0.114659
1482	0.0903998
1494	0.0620367
1506	0.0348806
1518	0.0179834
1530	0.00941413
1542	0.00651748
1554	0.00531054
1566	0.00506915
1578	0.00579331
1590	0.00494845
1602	0.00422429
1614	0.0041036
1626	0.00458637
1638	0.00422429
1650	0.00482776
1662	0.00386221
1674	0.00470707
1686	0.00422429
1698	0.00422429
1710	0.00301735
1722	0.00277596
1734	0.00350013
1746	0.00168972
1758	0.00144833
1770	0.00181041
1782	0.00144833
1794	0.00168972
1806	0.00132763
1818	0.00132763
1830	0.00120694
1842	0.000965552
1854	0.00060347
1866	0.00060347
1878	0.000724164
1890	0.00120694
1902	0.00120694
1914	0.00144833
1926	0.000965552
1938	0.00132763
1950	0.00060347
1962	0.000482776
1974	0.000241388
1986	0.000482776
1998	0.000362082
2010	0.000362082
2022	0.000724164
2034	0.00120694
2046	0.00120694
2058	0.000724164
2070	0.000724164
2082	0.00060347
2094	0.000724164
2106	0.000724164
2118	0.00108625
2130	0.00132763
2142	0.00132763
2154	0.000844858
2166	0.000965552
2178	0.00108625
2190	0.00120694
2202	0.000965552
2214	0.00132763
2226	0.00120694
2238	0.000724164
2250	0.00060347
2262	0.00060347
2274	0.000724164
2286	0.000724164
2298	0.000241388
2310	0
2322	0.00060347
2334	0.000724164
2346	0.000844858
2358	0.0020518
2370	0.000724164
2382	0.0020518
2394	0.00229319
2406	0.00217249
2418	0.00277596
2430	0.00325874
2442	0.00265527
2454	0.00217249
2466	0.00108625
2478	0.000965552
2490	0.000844858
2502	0.00060347
2514	0.00132763
2526	0.00181041
2538	0.00144833
2550	0.00168972
2562	0.0019311
2574	0.00277596
2586	0.00470707
2598	0.0060347
2610	0.00651748
2622	0.00760372
2634	0.00772442
2646	0.00748303
2658	0.00820719
2670	0.00784511
2682	0.00881066
2694	0.00772442
2706	0.00844858
2718	0.0112245
2730	0.0162937
2742	0.0185869
2754	0.020518
2766	0.0171385
2778	0.0176213
2790	0.0200352
2802	0.0258285
2814	0.0364496
2826	0.0561227
2838	0.0891929
2850	0.150626
2862	0.260096
2874	0.429671
2886	0.449827
2898	0.506191
2910	0.508242
2922	0.611556
2934	0.798512
2946	0.886256
2958	1.07695
2970	1.04605
2982	0.864531
2994	0.48169
3006	0.197697
3018	0.0812271
3030	0.0400704
3042	0.0278803
3054	0.024863
3066	0.024863
3078	0.0249837
3090	0.0237767
3102	0.0195524
3114	0.0156902
3126	0.0137591
3138	0.0136384
3150	0.0137591
3162	0.0143626
3174	0.0141212
3186	0.0127936
3198	0.0105004
3210	0.00868997
3222	0.00820719
3234	0.0060347
3246	0.00543123
3258	0.00350013
3270	0.00277596
3282	0.00289666
3294	0.00241388
3306	0.00241388
3318	0.00277596
3330	0.00265527
3342	0.00229319
3354	0.00253457
3366	0.00301735
3378	0.00337943
3390	0.00374151
3402	0.00301735
3414	0.00265527
3426	0.00181041
3438	0.00156902
3450	0.0019311
3462	0.00060347
3474	0.00156902
3486	0.000724164
3498	0.00132763
3510	0.000844858
3522	0.000120694
3534	0.000724164
3546	0.000362082
3558	0.00108625
3570	0.000965552
3582	0.00120694
3594	0.00144833
3606	0.0019311
3618	0.00217249
3630	0.00241388
3642	0.00277596
3654	0.00168972
3666	0.0020518
3678	0.00325874
3690	0.00374151
3702	0.00301735
3714	0.00386221
3726	0.00374151
3738	0.00337943
3750	0.00253457
3762	0.00289666
3774	0.00241388
3786	0.0020518
3798	0.00229319
3810	0.00217249
3822	0.00313804
3834	0.00277596
3846	0.00289666
3858	0.00325874
3870	0.00350013
3882	0.00325874
3894	0.00277596
3906	0.0019311
3918	0.00277596
3930	0.00120694
3942	0.00229319
3954	0.00313804
3966	0.000362082
