Infrared Spectrum: 1-Propene, 3-chloro-
Formula: C 3 H 5 Cl
CAS: 107-05-1
State: gas
Origin: Sadtler Research Labs Under US-EPA Contract
1/CM	ABSORBANCE
450	0.00380326
462	0.00750087
474	0.0116211
486	0.0147904
498	0.0233478
510	0.0224498
522	0.0292111
534	0.0234006
546	0.0308486
558	0.025672
570	0.0395644
582	0.0595843
594	0.0545662
606	0.0417302
618	0.0125719
630	0.0112513
642	0.0109872
654	0.0140509
666	0.0190691
678	0.024774
690	0.0311656
702	0.0422056
714	0.0895878
726	0.244835
738	0.511327
750	0.478735
762	0.358457
774	0.0558867
786	0.0306902
798	0.0210764
810	0.0153187
822	0.00961379
834	0.00971943
846	0.0122021
858	0.0157413
870	0.0285772
882	0.0704131
894	0.139136
906	0.252388
918	0.391788
930	0.413234
942	0.381224
954	0.239552
966	0.177644
978	0.19217
990	0.162272
1002	0.131952
1014	0.0828793
1026	0.0487028
1038	0.0299506
1050	0.0158469
1062	0.0106174
1074	0.00633876
1086	0.00681417
1098	0.00612747
1110	0.00406737
1122	0.00052823
1134	0.000686699
1146	0.00116211
1158	0.00417302
1170	0.00628594
1182	0.011938
1194	0.0133642
1206	0.0186993
1218	0.0213405
1230	0.0348104
1242	0.143573
1254	0.300193
1266	0.30912
1278	0.196924
1290	0.0857846
1302	0.062067
1314	0.0315353
1326	0.0160054
1338	0.0131001
1350	0.0111457
1362	0.0080291
1374	0.0122021
1386	0.0241401
1398	0.0616444
1410	0.108023
1422	0.112249
1434	0.0880031
1446	0.0652364
1458	0.0520835
1470	0.0377156
1482	0.0226082
1494	0.0134699
1506	0.0109872
1518	0.00649723
1530	0.00644441
1542	0.0066557
1554	0.00670852
1566	0.00581053
1578	0.00723675
1590	0.00618029
1602	0.00485972
1614	0.0100892
1626	0.0274151
1638	0.0528758
1650	0.0586335
1662	0.039987
1674	0.0134699
1686	0.00417302
1698	0.00380326
1710	0.00237703
1722	0.00248268
1734	0.0027468
1746	0.00110928
1758	0.00100364
1770	0.000950814
1782	0.00052823
1794	0.000897991
1806	0.0020601
1818	0.00575771
1830	0.00961379
1842	0.0226611
1854	0.0394588
1866	0.0411491
1878	0.0246683
1890	0.0113569
1902	0.00512383
1914	0.00359196
1926	0.00279962
1938	0.00438431
1950	0.00660288
1962	0.0073424
1974	0.00591618
1986	0.00353914
1998	0.00290526
2010	0.00221857
2022	0.00169034
2034	0.00184881
2046	0.00190163
2058	0.00153187
2070	0.00242986
2082	0.00301091
2094	0.00258833
2106	0.00184881
2118	0.000792345
2130	0.000845168
2142	0.00126775
2154	0.000897991
2166	0.000897991
2178	0.0020601
2190	0.00248268
2202	0.00285244
2214	0.00264115
2226	0.00248268
2238	0.00216574
2250	0.00163751
2262	0.00174316
2274	0.00169034
2286	0.00211292
2298	0.00258833
2310	0.00369761
2322	0.00470125
2334	0.0045956
2346	0.00538795
2358	0.00591618
2370	0.00153187
2382	0.00169034
2394	0.00412019
2406	0.00369761
2418	0.0032222
2430	0.00158469
2442	0.00132058
2454	0.00147904
2466	0.00147904
2478	0.000950814
2490	0.00105646
2502	0.00158469
2514	0.0020601
2526	0.00158469
2538	0.00105646
2550	0.000845168
2562	0.00169034
2574	0.00174316
2586	0.000739522
2598	0.000581053
2610	0.000897991
2622	0.000897991
2634	0.000316938
2646	0.000158469
2658	0.000633876
2670	0.000950814
2682	0.00153187
2694	0.00369761
2706	0.00549359
2718	0.00591618
2730	0.00306373
2742	0.00264115
2754	0.00216574
2766	0.00179598
2778	0.00126775
2790	0.00126775
2802	0.00132058
2814	0.00237703
2826	0.00470125
2838	0.0101948
2850	0.0162695
2862	0.0217103
2874	0.028049
2886	0.0258833
2898	0.0268341
2910	0.0260946
2922	0.0401455
2934	0.0695679
2946	0.105276
2958	0.140879
2970	0.153662
2982	0.166392
2994	0.154824
3006	0.14183
3018	0.116739
3030	0.0819285
3042	0.0676134
3054	0.0516081
3066	0.0621198
3078	0.0861015
3090	0.126934
3102	0.123289
3114	0.0987262
3126	0.050129
3138	0.021499
3150	0.0098779
3162	0.00570488
3174	0.00475407
3186	0.00375043
3198	0.00380326
3210	0.00380326
3222	0.0027468
3234	0.00269397
3246	0.0027468
3258	0.00327503
3270	0.00237703
3282	0.00338067
3294	0.0032222
3306	0.00285244
3318	0.00195445
3330	0.00184881
3342	0.00269397
3354	0.00211292
3366	0.00248268
3378	0.00279962
3390	0.0025355
3402	0.0025355
3414	0.0032222
3426	0.00290526
3438	0.00332785
3450	0.00285244
3462	0.00343349
3474	0.00279962
3486	0.0027468
3498	0.00438431
3510	0.00343349
3522	0.0039089
3534	0.0027468
3546	0.00158469
3558	0.00216574
3570	0.00221857
3582	0.00242986
3594	0.00216574
3606	0.00163751
3618	0.000792345
3630	0.00242986
3642	0.00110928
3654	0
3666	0.00158469
3678	0.00216574
3690	0.00142622
3702	0.00105646
3714	0.00221857
3726	0.00227139
3738	0.00132058
3750	0.00221857
3762	0.00110928
3774	0.000581053
3786	0.0020601
3798	0.00306373
3810	0.00232421
3822	0.00179598
3834	0.00237703
3846	0.00237703
3858	0.00190163
3870	0.00311656
3882	0.00200727
3894	0.00221857
3906	0.00174316
3918	0.00396173
3930	0.00258833
3942	0.00227139
3954	0.00242986
3966	0.00100364
