Infrared Spectrum: 3-CHLOROPROPENE
Formula: C3 H5 Cl
CAS: 107-05-1
Class: COBLENTZ
Instrument: Not specified, most likely a prism, grating, or hybrid spectrometer.
Sampling: TRANSMISSION
Path length: 0.0025 CM
Resolution: 4
Origin: W.T. BOLLETER
MICROMETERS	TRANSMITTANCE
14.508	0.075
14.578	0.089
14.648	0.136
14.7181	0.17
14.7881	0.204
14.8581	0.249
14.9281	0.288
14.9981	0.324
15.0682	0.356
15.1382	0.387
15.2082	0.408
15.2782	0.426
15.3483	0.439
15.4183	0.451
15.4883	0.458
15.5583	0.465
15.6283	0.474
15.6984	0.48
15.7684	0.482
15.8384	0.478
15.9084	0.471
15.9784	0.462
16.0485	0.453
16.1185	0.439
16.1885	0.421
16.2585	0.401
16.3285	0.356
16.3986	0.32
16.4686	0.283
16.5386	0.227
16.6086	0.175
16.6786	0.129
16.7487	0.078
16.8187	0.03
16.8887	0.017
16.9587	0.01
17.0288	0.005
17.0988	0.008
17.1688	0.021
17.2388	0.037
17.3088	0.082
17.3789	0.13
17.4489	0.164
17.5189	0.197
17.5889	0.216
17.6589	0.225
17.729	0.225
17.799	0.213
17.869	0.193
17.939	0.168
18.009	0.141
18.0791	0.125
18.1491	0.102
18.2191	0.094
18.2891	0.102
18.3591	0.13
18.4292	0.164
18.4992	0.213
18.5692	0.263
18.6392	0.317
18.7093	0.37
18.7793	0.408
18.8493	0.444
18.9193	0.478
18.9893	0.498
19.0594	0.505
19.1294	0.505
19.1994	0.492
19.2694	0.455
19.3394	0.408
19.4095	0.351
19.4795	0.308
19.5495	0.279
19.6195	0.284
19.6895	0.331
19.7596	0.381
19.8296	0.449
19.8996	0.503
19.9696	0.55
20.0396	0.598
20.1097	0.621
20.1797	0.645
20.2497	0.663
20.3197	0.677
20.3898	0.693
20.4598	0.702
20.5298	0.713
20.5998	0.724
20.6698	0.732
20.7399	0.74
20.8099	0.745
20.8799	0.75
20.9499	0.754
21.0199	0.763
21.09	0.767
21.16	0.772
21.23	0.781
21.3	0.79
21.37	0.795
21.4401	0.804
21.5101	0.806
21.5801	0.81
21.6501	0.813
21.7202	0.82
21.7902	0.822
21.8602	0.822
21.9302	0.822
22.0002	0.826
22.0703	0.827
22.1403	0.831
22.2103	0.835
22.2803	0.838
22.3503	0.842
22.4204	0.847
22.4904	0.851
22.5604	0.858
22.6304	0.86
22.7004	0.863
22.7705	0.865
22.8405	0.865
22.9105	0.867
22.9805	0.869
23.0505	0.872
23.1206	0.874
23.1906	0.87
23.2606	0.867
23.3306	0.865
23.4007	0.86
23.4707	0.856
23.5407	0.849
23.6107	0.838
23.6807	0.826
23.7508	0.815
23.8208	0.806
23.8908	0.793
23.9608	0.784
24.0308	0.768
24.1009	0.756
24.1709	0.743
24.2409	0.736
24.3109	0.731
24.3809	0.725
24.451	0.724
24.521	0.722
24.591	0.724
24.661	0.725
24.731	0.731
24.8011	0.736
24.8711	0.745
24.9411	0.752
25.0111	0.756
25.0812	0.763
25.1512	0.767
25.2212	0.772
25.2912	0.779
25.3612	0.788
25.4313	0.792
25.5013	0.801
25.5713	0.804
25.6413	0.81
25.7113	0.815
25.7814	0.82
25.8514	0.826
25.9214	0.833
25.9914	0.838
26.0614	0.84
26.1315	0.847
26.2015	0.853
26.2715	0.858
26.3415	0.862
26.4115	0.865
26.4816	0.87
26.5516	0.876
26.6216	0.883
26.6916	0.885
26.7617	0.888
26.8317	0.888
26.9017	0.892
26.9717	0.903
27.0417	0.905
27.1118	0.906
27.1818	0.91
27.2518	0.915
27.3218	0.915
27.3918	0.917
27.4619	0.921
27.5319	0.921
27.6019	0.919
27.6719	0.921
27.7419	0.921
27.812	0.924
27.882	0.926
27.952	0.928
28.022	0.926
28.0921	0.926
28.1621	0.922
28.2321	0.919
28.3021	0.917
28.3721	0.917
28.4422	0.915
28.5122	0.913
28.5822	0.912
28.6522	0.908
28.7222	0.906
28.7923	0.906
28.8623	0.905
28.9323	0.901
29.0023	0.897
29.0723	0.894
29.1424	0.89
29.2124	0.887
29.2824	0.883
29.3524	0.881
29.4224	0.878
29.4925	0.874
29.5625	0.872
29.6325	0.867
29.7025	0.863
29.7726	0.854
29.8426	0.844
29.9126	0.838
29.9826	0.831
30.0526	0.824
30.1227	0.82
30.1927	0.815
30.2627	0.808
30.3327	0.801
30.4027	0.799
30.4728	0.792
30.5428	0.775
30.6128	0.77
30.6828	0.765
30.7528	0.758
30.8229	0.747
30.8929	0.736
30.9629	0.727
31.0329	0.715
31.1029	0.707
31.173	0.698
31.243	0.688
31.313	0.681
31.383	0.664
31.4531	0.652
31.5231	0.634
31.5931	0.621
31.6631	0.607
31.7331	0.596
31.8032	0.586
31.8732	0.573
31.9432	0.557
32.0132	0.532
32.0832	0.521
32.1533	0.512
32.2233	0.494
32.2933	0.478
32.3633	0.465
32.4333	0.453
32.5034	0.435
32.5734	0.417
32.6434	0.401
32.7134	0.387
32.7834	0.37
32.8535	0.354
32.9235	0.336
32.9935	0.313
33.0635	0.295
33.1336	0.275
33.2036	0.254
33.2736	0.24
33.3436	0.227
33.4136	0.207
33.4837	0.197
33.5537	0.177
33.6237	0.163
33.6937	0.152
33.7637	0.148
33.8338	0.139
33.9038	0.134
33.9738	0.127
34.0438	0.114
34.1138	0.103
34.1839	0.094
34.2539	0.087
34.3239	0.084
34.3939	0.082
34.464	0.084
34.534	0.08
34.604	0.078
34.674	0.078
34.744	0.08
34.8141	0.084
34.8841	0.086
34.9541	0.089
35.0241	0.089
35.0941	0.091
35.1642	0.093
35.2342	0.096
35.3042	0.102
35.3742	0.109
35.4442	0.114
35.5143	0.123
35.5843	0.13
35.6543	0.141
35.7243	0.152
35.7943	0.161
35.8644	0.17
35.9344	0.173
36.0044	0.179
36.0744	0.189
36.1445	0.198
36.2145	0.204
36.2845	0.209
36.3545	0.222
36.4245	0.231
36.4946	0.241
36.5646	0.245
36.6346	0.25
36.7046	0.258
36.7746	0.263
36.8447	0.268
36.9147	0.272
36.9847	0.275
37.0547	0.281
37.1247	0.286
37.1948	0.292
37.2648	0.293
37.3348	0.301
37.4048	0.299
37.4748	0.311
37.5449	0.326
37.6149	0.336
37.6849	0.344
37.7549	0.353
37.825	0.36
37.895	0.363
37.965	0.376
