Infrared Spectrum: Propene, 3-chloro-
Formula: C3 H5 Cl
CAS: 107-05-1
State: GAS (100 mmHg, N2 ADDED, TOTAL PRESSURE 600 mmHg)
Class: COBLENTZ
Instrument: DOW KBr FOREPRISM-GRATING
Instrument parameters: GRATING CHANGED AT 5.0, 7.5, 15.0 MICRON
Sampling: TRANSMISSION
Path length: 5 CM
Resolution: 2
Origin: DOW CHEMICAL COMPANY
1/CM	TRANSMITTANCE
452	0.8799
461	0.8684
470	0.8528
479	0.8333
488	0.8312
497	0.8112
506	0.7885
515	0.7817
524	0.7686
533	0.7786
542	0.7489
551	0.7689
560	0.7733
569	0.7617
578	0.7279
587	0.5974
596	0.5898
605	0.6522
614	0.7967
623	0.8294
632	0.8395
641	0.8298
650	0.8183
659	0.8078
668	0.8081
677	0.7744
686	0.7627
695	0.7588
704	0.7477
713	0.6661
722	0.446
731	0.1678
740	0.0379
749	0.0546
758	0.0413
767	0.4121
776	0.6783
785	0.7759
794	0.8246
803	0.8325
812	0.8444
821	0.8419
830	0.8405
839	0.8468
848	0.8512
857	0.845
866	0.8262
875	0.7804
884	0.6083
893	0.4855
902	0.2955
911	0.1885
920	0.0855
929	0.0824
938	0.1105
947	0.2748
956	0.4432
965	0.4454
974	0.3209
983	0.3783
992	0.3807
1001	0.5145
1010	0.6373
1019	0.7148
1028	0.7677
1037	0.8044
1046	0.8378
1055	0.8429
1064	0.8497
1073	0.8483
1082	0.842
1091	0.83
1100	0.8422
1109	0.8581
1118	0.8734
1127	0.8805
1136	0.881
1145	0.8766
1154	0.8691
1163	0.8612
1172	0.8533
1181	0.8492
1190	0.8351
1199	0.8194
1208	0.8053
1217	0.811
1226	0.7996
1235	0.7487
1244	0.3586
1253	0.1504
1262	0.219
1271	0.2025
1280	0.5667
1289	0.5758
1298	0.6355
1307	0.6875
1316	0.8223
1325	0.823
1334	0.8229
1343	0.8302
1352	0.8486
1361	0.8669
1370	0.8533
1379	0.824
1388	0.7788
1397	0.7053
1406	0.4613
1415	0.5567
1424	0.4054
1433	0.6261
1442	0.6117
1451	0.6049
1460	0.6764
1469	0.7363
1478	0.7971
1487	0.8302
1496	0.8415
1505	0.8537
1514	0.8464
1523	0.8433
1532	0.8379
1541	0.8482
1550	0.8497
1559	0.8503
1568	0.8419
1577	0.8392
1586	0.8447
1595	0.8512
1604	0.8523
1613	0.8477
1622	0.8061
1631	0.7127
1640	0.6336
1649	0.6069
1658	0.6775
1667	0.8184
1676	0.851
1685	0.8572
1694	0.8682
1703	0.859
1712	0.8667
1721	0.8596
1730	0.8653
1739	0.8608
1748	0.8654
1757	0.8655
1766	0.8712
1775	0.8666
1784	0.8665
1793	0.8653
1802	0.8609
1811	0.8536
1820	0.8447
1829	0.8299
1838	0.7982
1847	0.7041
1856	0.7054
1865	0.6723
1874	0.7802
1883	0.8153
1892	0.8422
1901	0.8541
1910	0.8565
1919	0.8569
1928	0.8544
1937	0.8514
1946	0.8468
1955	0.8386
1964	0.8426
1973	0.8485
1982	0.8607
1991	0.8639
2000	0.8631
2009	0.8633
2018	0.8641
2027	0.8648
2036	0.8656
2045	0.867
2054	0.8672
2063	0.8669
2072	0.8666
2081	0.8653
2090	0.8641
2099	0.863
2108	0.8639
2117	0.8647
2126	0.8656
2135	0.8665
2144	0.8666
2153	0.8666
2162	0.8667
2171	0.8664
2180	0.8655
2189	0.8647
2198	0.8643
2207	0.8648
2216	0.8661
2225	0.8678
2234	0.8698
2243	0.8715
2252	0.8732
2261	0.8748
2270	0.8755
2279	0.8753
2288	0.8753
2297	0.876
2306	0.8775
2315	0.8807
2324	0.8833
2333	0.8759
2342	0.8676
2351	0.8768
2360	0.878
2369	0.8755
2378	0.8677
2387	0.8634
2396	0.8637
2405	0.8661
2414	0.8708
2423	0.8732
2432	0.8735
2441	0.8741
2450	0.8747
2459	0.8751
2468	0.8747
2477	0.8738
2486	0.8725
2495	0.8706
2504	0.8685
2513	0.8757
2522	0.8792
2531	0.8797
2540	0.8798
2549	0.8795
2558	0.8793
2567	0.879
2576	0.8786
2585	0.878
2594	0.8778
2603	0.8775
2612	0.8773
2621	0.8768
2630	0.8765
2639	0.876
2648	0.8754
2657	0.8747
2666	0.874
2675	0.8716
2684	0.8675
2693	0.8555
2702	0.8492
2711	0.8551
2720	0.8679
2729	0.872
2738	0.874
2747	0.8745
2756	0.8748
2765	0.8746
2774	0.8742
2783	0.8735
2792	0.8718
2801	0.8694
2810	0.8643
2819	0.8576
2828	0.8491
2837	0.8361
2846	0.8195
2855	0.8019
2864	0.7755
2873	0.7743
2882	0.7807
2891	0.8135
2900	0.8327
2909	0.8304
2918	0.7851
2927	0.6842
2936	0.5832
2945	0.5027
2954	0.4149
2963	0.4306
2972	0.4184
2981	0.4296
2990	0.4158
2999	0.4546
3008	0.4952
3017	0.6075
3026	0.6075
3035	0.7225
3044	0.7295
3053	0.69
3062	0.6297
3071	0.5879
3080	0.4489
3089	0.4219
3098	0.4293
3107	0.4682
3116	0.6902
3125	0.7885
3134	0.8399
3143	0.8535
3152	0.8576
3161	0.8588
3170	0.8598
3179	0.8604
3188	0.8602
3197	0.86
3206	0.8599
3215	0.8601
3224	0.8606
3233	0.8601
3242	0.8596
3251	0.8591
3260	0.859
3269	0.8586
3278	0.8568
3287	0.8551
3296	0.8551
3305	0.855
3314	0.8549
3323	0.8546
3332	0.8542
3341	0.8536
3350	0.8517
3359	0.8482
3368	0.8457
3377	0.8453
3386	0.8452
3395	0.8454
3404	0.8462
3413	0.8475
3422	0.849
3431	0.8508
3440	0.8527
3449	0.8546
3458	0.8568
3467	0.8589
3476	0.8602
3485	0.8612
3494	0.8624
3503	0.8643
3512	0.8658
3521	0.867
3530	0.8679
3539	0.8688
3548	0.8689
3557	0.8706
3566	0.8714
3575	0.8716
3584	0.8712
3593	0.8714
3602	0.8718
3611	0.8712
3620	0.871
3629	0.875
3638	0.8693
3647	0.8717
3656	0.872
3665	0.8686
3674	0.8663
3683	0.8672
3692	0.8679
3701	0.8702
3710	0.8759
3719	0.8801
3728	0.8796
3737	0.8723
3746	0.8706
3755	0.8711
3764	0.8726
3773	0.8741
3782	0.8737
