Infrared Spectrum: 1,2-DICHLOROPROPENE
Formula: C3 H4 Cl2
CAS: 563-54-2
Class: COBLENTZ
Instrument: Not specified, most likely a prism, grating, or hybrid spectrometer.
Sampling: TRANSMISSION
Path length: 0.0025 CM
Resolution: 4
Origin: W.T. BOLLETER
MICROMETERS	TRANSMITTANCE
14.508	0.253
14.5781	0.337
14.6483	0.448
14.7184	0.525
14.7885	0.58
14.8586	0.61
14.9288	0.646
14.9989	0.666
15.069	0.68
15.1391	0.687
15.2093	0.7
15.2794	0.726
15.3495	0.769
15.4196	0.796
15.4898	0.81
15.5599	0.825
15.63	0.832
15.7001	0.839
15.7703	0.841
15.8404	0.841
15.9105	0.839
15.9807	0.837
16.0508	0.832
16.1209	0.825
16.191	0.814
16.2612	0.8
16.3313	0.775
16.4014	0.746
16.4715	0.696
16.5417	0.589
16.6118	0.473
16.6819	0.401
16.752	0.392
16.8222	0.466
16.8923	0.571
16.9624	0.639
17.0325	0.721
17.1027	0.742
17.1728	0.753
17.2429	0.758
17.3131	0.762
17.3832	0.771
17.4533	0.778
17.5234	0.789
17.5936	0.796
17.6637	0.808
17.7338	0.821
17.8039	0.835
17.8741	0.848
17.9442	0.864
18.0143	0.873
18.0844	0.878
18.1546	0.882
18.2247	0.887
18.2948	0.892
18.3649	0.892
18.4351	0.889
18.5052	0.885
18.5753	0.88
18.6455	0.878
18.7156	0.873
18.7857	0.866
18.8558	0.864
18.926	0.86
18.9961	0.862
19.0662	0.867
19.1363	0.869
19.2065	0.871
19.2766	0.871
19.3467	0.867
19.4168	0.864
19.487	0.862
19.5571	0.857
19.6272	0.851
19.6974	0.848
19.7675	0.837
19.8376	0.826
19.9077	0.819
19.9779	0.807
20.048	0.798
20.1181	0.789
20.1882	0.78
20.2584	0.778
20.3285	0.778
20.3986	0.778
20.4687	0.776
20.5389	0.775
20.609	0.773
20.6791	0.769
20.7492	0.764
20.8194	0.758
20.8895	0.751
20.9596	0.746
21.0298	0.739
21.0999	0.732
21.17	0.723
21.2401	0.712
21.3103	0.701
21.3804	0.685
21.4505	0.662
21.5206	0.628
21.5908	0.592
21.6609	0.535
21.731	0.478
21.8011	0.453
21.8713	0.444
21.9414	0.448
22.0115	0.453
22.0816	0.455
22.1518	0.451
22.2219	0.428
22.292	0.412
22.3622	0.383
22.4323	0.346
22.5024	0.307
22.5725	0.273
22.6427	0.228
22.7128	0.185
22.7829	0.144
22.853	0.103
22.9232	0.069
22.9933	0.041
23.0634	0.019
23.1335	0.014
23.2037	0.008
23.2738	0.007
23.3439	0.005
23.414	0.007
23.4842	0.014
23.5543	0.025
23.6244	0.046
23.6946	0.083
23.7647	0.126
23.8348	0.192
23.9049	0.258
23.9751	0.317
24.0452	0.367
24.1153	0.401
24.1854	0.439
24.2556	0.482
24.3257	0.503
24.3958	0.526
24.4659	0.546
24.5361	0.562
24.6062	0.573
24.6763	0.58
24.7464	0.582
24.8166	0.576
24.8867	0.557
24.9568	0.517
25.027	0.45
25.0971	0.4
25.1672	0.355
25.2373	0.296
25.3075	0.264
25.3776	0.244
25.4477	0.235
25.5178	0.262
25.588	0.3
25.6581	0.346
25.7282	0.396
25.7983	0.451
25.8685	0.5
25.9386	0.557
26.0087	0.61
26.0788	0.648
26.149	0.676
26.2191	0.701
26.2892	0.721
26.3594	0.746
26.4295	0.762
26.4996	0.773
26.5697	0.776
26.6399	0.796
26.71	0.803
26.7801	0.814
26.8502	0.832
26.9204	0.839
26.9905	0.846
27.0606	0.85
27.1307	0.858
27.2009	0.875
27.271	0.88
27.3411	0.88
27.4113	0.883
27.4814	0.889
27.5515	0.894
27.6216	0.9
27.6918	0.901
27.7619	0.903
27.832	0.905
27.9021	0.907
27.9723	0.908
28.0424	0.908
28.1125	0.908
28.1826	0.912
28.2528	0.921
28.3229	0.923
28.393	0.923
28.4631	0.923
28.5333	0.923
28.6034	0.921
28.6735	0.921
28.7437	0.921
28.8138	0.923
28.8839	0.923
28.954	0.925
29.0242	0.925
29.0943	0.921
29.1644	0.921
29.2345	0.921
29.3047	0.919
29.3748	0.919
29.4449	0.917
29.515	0.914
29.5852	0.914
29.6553	0.912
29.7254	0.91
29.7955	0.907
29.8657	0.9
29.9358	0.896
30.0059	0.887
30.0761	0.882
30.1462	0.876
30.2163	0.873
30.2864	0.866
30.3566	0.864
30.4267	0.857
30.4968	0.846
30.5669	0.832
30.6371	0.805
30.7072	0.798
30.7773	0.787
30.8474	0.762
30.9176	0.725
30.9877	0.694
31.0578	0.671
31.1279	0.633
31.1981	0.6
31.2682	0.56
31.3383	0.505
31.4085	0.469
31.4786	0.441
31.5487	0.41
31.6188	0.396
31.689	0.38
31.7591	0.375
31.8292	0.376
31.8993	0.38
31.9695	0.392
32.0396	0.425
32.1097	0.45
32.1798	0.469
32.25	0.487
32.3201	0.533
32.3902	0.553
32.4603	0.583
32.5305	0.603
32.6006	0.623
32.6707	0.648
32.7409	0.666
32.811	0.685
32.8811	0.698
32.9512	0.705
33.0214	0.707
33.0915	0.703
33.1616	0.701
33.2317	0.7
33.3019	0.703
33.372	0.714
33.4421	0.73
33.5122	0.737
33.5824	0.741
33.6525	0.744
33.7226	0.748
33.7927	0.75
33.8629	0.75
33.933	0.748
34.0031	0.744
34.0733	0.746
34.1434	0.748
34.2135	0.746
34.2836	0.748
34.3538	0.751
34.4239	0.748
34.494	0.741
34.5641	0.733
34.6343	0.732
34.7044	0.728
34.7745	0.723
34.8446	0.717
34.9148	0.712
34.9849	0.716
35.055	0.714
35.1252	0.71
35.1953	0.71
35.2654	0.71
35.3355	0.707
35.4057	0.7
35.4758	0.696
35.5459	0.687
35.616	0.678
35.6862	0.673
35.7563	0.691
35.8264	0.682
35.8965	0.676
35.9667	0.676
36.0368	0.669
36.1069	0.666
36.177	0.664
36.2472	0.66
36.3173	0.66
36.3874	0.658
36.4576	0.657
36.5277	0.655
36.5978	0.655
36.6679	0.655
36.7381	0.653
36.8082	0.651
36.8783	0.651
36.9484	0.651
37.0186	0.653
37.0887	0.653
37.1588	0.651
37.2289	0.653
37.2991	0.657
37.3692	0.653
37.4393	0.655
37.5094	0.655
37.5796	0.653
37.6497	0.653
37.7198	0.653
37.79	0.651
37.8601	0.65
37.9302	0.65
