Infrared Spectrum: 2,3-Dimethyl-1-butene
Formula: C 6 H 12
CAS: 563-78-0
State: gas
Instrument: HP-GC/MS/IRD
Origin: NIST Mass Spectrometry Data Center
1/CM	ABSORBANCE
550	0.002499
562	0.0019635
574	0.0011322
586	0.0004692
598	0.0001479
610	4.59e-05
622	0.0001224
634	9.69e-05
646	8.67e-05
658	2.04e-05
670	0.0001326
682	0.0001122
694	0.000255
706	0.0002907
718	0.0004437
730	0.0004488
742	0.0003009
754	0.0002397
766	0.0001632
778	0.0001377
790	0.000102
802	0.0001275
814	0.0002958
826	0.000459
838	0.0006477
850	0.001224
862	0.0031416
874	0.0077163
886	0.0131325
898	0.0123522
910	0.0073899
922	0.0026979
934	0.0012495
946	0.0008823
958	0.0007956
970	0.0006069
982	0.0004743
994	0.0004845
1006	0.0004896
1018	0.0003264
1030	0.0002448
1042	0.0002754
1054	0.0004029
1066	0.0006834
1078	0.0014586
1090	0.0024633
1102	0.0029886
1114	0.0021471
1126	0.001224
1138	0.0012699
1150	0.0015963
1162	0.0015045
1174	0.001071
1186	0.0005661
1198	0.0004998
1210	0.0005457
1222	0.0009894
1234	0.0013872
1246	0.0013617
1258	0.00102
1270	0.0007854
1282	0.0009486
1294	0.0013005
1306	0.0017646
1318	0.0014943
1330	0.0011067
1342	0.0015861
1354	0.0030702
1366	0.0057885
1378	0.007242
1390	0.00663
1402	0.0041361
1414	0.0033966
1426	0.0041718
1438	0.0059262
1450	0.0076602
1462	0.0083436
1474	0.0068391
1486	0.0040953
1498	0.0021675
1510	0.0012393
1522	0.0009027
1534	0.0007089
1546	0.000663
1558	0.0006834
1570	0.0007752
1582	0.0010149
1594	0.0012699
1606	0.0017187
1618	0.0027999
1630	0.0047379
1642	0.0060843
1654	0.0051102
1666	0.0028203
1678	0.0011016
1690	0.0006171
1702	0.0004437
1714	0.0003774
1726	0.0003111
1738	0.000306
1750	0.0003162
1762	0.0004692
1774	0.0008466
1786	0.0010965
1798	0.0009588
1810	0.0005763
1822	0.0003162
1834	0.0001989
1846	0.0001683
1858	0.0001428
1870	0.0001173
1882	0.000102
1894	0.0001122
1906	0.0001173
1918	8.67e-05
1930	8.16e-05
1942	7.14e-05
1954	6.63e-05
1966	6.63e-05
1978	5.61e-05
1990	9.18e-05
2002	7.65e-05
2014	5.1e-05
2026	5.61e-05
2038	4.08e-05
2050	5.61e-05
2062	4.59e-05
2074	6.12e-05
2086	6.63e-05
2098	4.59e-05
2110	6.63e-05
2122	5.61e-05
2134	3.06e-05
2146	4.59e-05
2158	2.04e-05
2170	5.1e-06
2182	5.1e-06
2194	4.59e-05
2206	0
2218	3.57e-05
2230	8.67e-05
2242	7.14e-05
2254	0.000102
2266	9.18e-05
2278	7.65e-05
2290	7.14e-05
2302	4.59e-05
2314	5.61e-05
2326	7.14e-05
2338	9.18e-05
2350	6.63e-05
2362	0.0001122
2374	8.67e-05
2386	0.0001224
2398	9.69e-05
2410	0.0001122
2422	8.67e-05
2434	8.67e-05
2446	8.67e-05
2458	8.16e-05
2470	0.0001326
2482	0.000102
2494	0.0001224
2506	4.59e-05
2518	6.63e-05
2530	0.0001071
2542	0.000153
2554	0.0001683
2566	0.000255
2578	0.0003315
2590	0.0003162
2602	0.0002856
2614	0.0002142
2626	0.0002193
2638	0.0001836
2650	0.0002142
2662	0.0002244
2674	0.0002652
2686	0.0003009
2698	0.0003723
2710	0.0004845
2722	0.0006732
2734	0.000816
2746	0.000816
2758	0.0007446
2770	0.0008058
2782	0.0008466
2794	0.0010557
2806	0.0013719
2818	0.0017646
2830	0.0023205
2842	0.0033915
2854	0.0060843
2866	0.011067
2878	0.0162741
2890	0.0178602
2902	0.0183039
2914	0.018819
2926	0.0213537
2938	0.0249645
2950	0.0334305
2962	0.046308
2974	0.048909
2986	0.0338079
2998	0.0152337
3010	0.0072879
3022	0.0046053
3034	0.0035802
3046	0.0034833
3058	0.0045441
3070	0.0065994
3082	0.0079305
3094	0.0067065
3106	0.0039219
3118	0.0017085
3130	0.0011832
3142	0.0009231
3154	0.0008313
3166	0.0007854
3178	0.0007191
3190	0.0006681
3202	0.0006222
3214	0.0004947
3226	0.0004182
3238	0.000306
3250	0.0002448
3262	0.0002244
3274	0.0001632
3286	0.0001581
3298	0.0001785
3310	0.000153
3322	0.0001428
3334	0.0001122
3346	6.63e-05
3358	7.14e-05
3370	9.69e-05
3382	0.0001071
3394	0.0001581
3406	0.0001224
3418	5.61e-05
3430	4.59e-05
3442	5.1e-05
3454	5.1e-05
3466	7.65e-05
3478	0.0001173
3490	0.0001479
3502	0.0002091
3514	0.0001377
3526	7.14e-05
3538	8.16e-05
3550	5.61e-05
3562	5.1e-05
3574	6.12e-05
3586	0.0001632
3598	7.65e-05
3610	7.14e-05
3622	7.65e-05
3634	6.63e-05
3646	4.59e-05
3658	1.53e-05
3670	0.0001071
3682	7.65e-05
3694	1.53e-05
3706	8.67e-05
3718	5.1e-06
3730	2.04e-05
3742	4.59e-05
3754	8.16e-05
3766	0.0001224
3778	0.0001479
3790	9.69e-05
3802	0.0001428
3814	0.0001275
3826	0.000102
3838	0.0001581
