Infrared Spectrum: Cyclopropyl isothiocyanate
Formula: C 4 H 5 N S
CAS: 56601-42-4
State: gas
Origin: EPA-IR VAPOR PHASE LIBRARY
1/CM	ABSORBANCE
549.8	0.021375
559.445	0.013285
569.09	0.008575
578.734	0.005065
588.379	0.003415
598.024	0.003005
607.669	0.002945
617.313	0.002415
626.958	0.002365
636.603	0.002595
646.248	0.001755
655.893	0.001062
665.537	0.00065672
675.182	0.0008893
684.827	0.0009685
694.472	0.0013712
704.116	0.0014398
713.761	0.0012609
723.406	0.0013179
733.051	0.0010953
742.695	0.0010035
752.34	0.0013146
761.985	0.001725
771.63	0.003095
781.275	0.004375
790.919	0.005425
800.564	0.006075
810.209	0.007015
819.854	0.006425
829.498	0.005925
839.143	0.005655
848.788	0.005725
858.433	0.005835
868.078	0.005155
877.722	0.004025
887.367	0.003945
897.012	0.004665
906.657	0.005625
916.301	0.006055
925.946	0.006255
935.591	0.005865
945.236	0.005125
954.88	0.005105
964.525	0.005595
974.17	0.006975
983.815	0.008765
993.46	0.012005
1003.1	0.022045
1012.75	0.030005
1022.39	0.030515
1032.04	0.018825
1041.68	0.012235
1051.33	0.010115
1060.97	0.007665
1070.62	0.005535
1080.26	0.003855
1089.91	0.002885
1099.55	0.002325
1109.2	0.002585
1118.84	0.002755
1128.49	0.003435
1138.13	0.003215
1147.78	0.004285
1157.42	0.005635
1167.07	0.006075
1176.71	0.005345
1186.36	0.005135
1196	0.005125
1205.64	0.006945
1215.29	0.005985
1224.93	0.004195
1234.58	0.002725
1244.22	0.002925
1253.87	0.003285
1263.51	0.003395
1273.16	0.002965
1282.8	0.002585
1292.45	0.002695
1302.09	0.003465
1311.74	0.004035
1321.38	0.005345
1331.03	0.010405
1340.67	0.033105
1350.32	0.073015
1359.96	0.065615
1369.61	0.032705
1379.25	0.005795
1388.9	0.004165
1398.54	0.004735
1408.18	0.005205
1417.83	0.005915
1427.47	0.006625
1437.12	0.008035
1446.76	0.011445
1456.41	0.011005
1466.05	0.008745
1475.7	0.003815
1485.34	0.002735
1494.99	0.002265
1504.63	0.001895
1514.28	0.001615
1523.92	0.0014555
1533.57	0.0014455
1543.21	0.0014324
1552.86	0.0013725
1562.5	0.0012705
1572.15	0.0011877
1581.79	0.0011465
1591.44	0.0009266
1601.08	0.0009381
1610.73	0.0009716
1620.37	0.0011471
1630.01	0.0011681
1639.66	0.0012719
1649.3	0.0011486
1658.95	0.0013311
1668.59	0.0014546
1678.24	0.001655
1687.88	0.001985
1697.53	0.002375
1707.17	0.002435
1716.82	0.002155
1726.46	0.002005
1736.11	0.001795
1745.75	0.001825
1755.4	0.001785
1765.04	0.001665
1774.69	0.001665
1784.33	0.001825
1793.98	0.002175
1803.62	0.002905
1813.27	0.003325
1822.91	0.003585
1832.55	0.003595
1842.2	0.003805
1851.84	0.004305
1861.49	0.005185
1871.13	0.006435
1880.78	0.007695
1890.42	0.009145
1900.07	0.010295
1909.71	0.011905
1919.36	0.014355
1929	0.018145
1938.65	0.023085
1948.29	0.029365
1957.94	0.037625
1967.58	0.049775
1977.23	0.067275
1986.87	0.091435
1996.52	0.118815
2006.16	0.147135
2015.81	0.176695
2025.45	0.208425
2035.1	0.253015
2044.74	0.310195
2054.38	0.368825
2064.03	0.418015
2073.67	0.438765
2083.32	0.370185
2092.96	0.254245
2102.61	0.156835
2112.25	0.109355
2121.9	0.090615
2131.54	0.086485
2141.19	0.089085
2150.83	0.084765
2160.48	0.075835
2170.12	0.069565
2179.77	0.065605
2189.41	0.055435
2199.06	0.040775
2208.7	0.028295
2218.35	0.027955
2227.99	0.025745
2237.64	0.019655
2247.28	0.011665
2256.92	0.007935
2266.57	0.006695
2276.21	0.005865
2285.86	0.005055
2295.5	0.004285
2305.15	0.003535
2314.79	0.002945
2324.44	0.002645
2334.08	0.002435
2343.73	0.002365
2353.37	0.002805
2363.02	0.003455
2372.66	0.003935
2382.31	0.003735
2391.95	0.002965
2401.6	0.002645
2411.24	0.002715
2420.89	0.002925
2430.53	0.002655
2440.18	0.002115
2449.82	0.001805
2459.47	0.001805
2469.11	0.001885
2478.75	0.001915
2488.4	0.001845
2498.04	0.001745
2507.69	0.001785
2517.33	0.001855
2526.98	0.001975
2536.62	0.001825
2546.27	0.001805
2555.91	0.001805
2565.56	0.001745
2575.2	0.001895
2584.85	0.001915
2594.49	0.001685
2604.14	0.0014127
2613.78	0.0011686
2623.43	0.0012317
2633.07	0.0014862
2642.72	0.001655
2652.36	0.001915
2662.01	0.002215
2671.65	0.002805
2681.29	0.003585
2690.94	0.004885
2700.58	0.006965
2710.23	0.009455
2719.87	0.011025
2729.52	0.009385
2739.16	0.006235
2748.81	0.003615
2758.45	0.002255
2768.1	0.001625
2777.74	0.0013554
2787.39	0.0011675
2797.03	0.0010832
2806.68	0.0012786
2816.32	0.0014008
2825.97	0.0015422
2835.61	0.0015926
2845.26	0.00155
2854.9	0.0015837
2864.55	0.0014557
2874.19	0.001419
2883.84	0.0011446
2893.48	0.0013552
2903.12	0.0013283
2912.77	0.0013205
2922.41	0.0012112
2932.06	0.0012118
2941.7	0.0013499
2951.35	0.001615
2960.99	0.001705
2970.64	0.001985
2980.28	0.002515
2989.93	0.003455
2999.57	0.004955
3009.22	0.006765
3018.86	0.009975
3028.51	0.012205
3038.15	0.015195
3047.8	0.015385
3057.44	0.013705
3067.09	0.008525
3076.73	0.006065
3086.38	0.006055
3096.02	0.011075
3105.67	0.011225
3115.31	0.009055
3124.95	0.003005
3134.6	0.0015051
3144.24	0.0013661
3153.89	0.0010392
3163.53	0.0010518
3173.18	0.0008753
3182.82	0.0005921
3192.47	0.000439
3202.11	0.000365
3211.76	0.000455
3221.4	0.0004
3231.05	0.000278
3240.69	0.00046
3250.34	0.0005392
3259.98	0.000387
3269.63	0.000361
3279.27	0.000194
3288.92	0.000268
3298.56	0.000449
3308.21	0.000405
3317.85	0.000179
3327.49	0.000388
3337.14	0.000354
3346.78	0.000446
3356.43	0.0005086
3366.07	0.000447
3375.72	0.000326
3385.36	0.000347
3395.01	0.0005564
3404.65	0.0005397
3414.3	0.000313
3423.94	0.000433
3433.59	0.000407
3443.23	0.000379
3452.88	0.0005628
3462.52	0.000493
3472.17	0.00067214
3481.81	0.00059937
3491.46	0.0007376
3501.1	0.00068696
3510.75	0.00043
3520.39	0.000451
3530.04	0.00063756
3539.68	0.00062942
3549.32	0.000436
3558.97	0.000398
3568.61	0.0005161
3578.26	0.000364
3587.9	0.000464
3597.55	0.0005256
3607.19	0.0007118
3616.84	0.0005246
3626.48	0.000462
3636.13	0.000316
3645.77	0.000434
3655.42	0.00063612
3665.06	0.00043
3674.71	0.000415
3684.35	0.000498
3694	0.000549
3703.64	0.0005051
3713.29	0.0005684
3722.93	0.00060157
3732.58	0.000435
3742.22	0.000446
3751.86	0.00070273
3761.51	0.00063006
3771.15	0.000607069
3780.8	0.0007103
3790.44	0.000606461
3800.09	0.0005799
3809.73	0.00068484
3819.38	0.000899
3829.02	0.0009371
3838.67	0.0007648
3848.31	0.000944
3857.96	0.0008444
3867.6	0.0009621
3877.25	0.0008706
3886.89	0.0009092
3896.54	0.0009847
3906.18	0.0011565
3915.83	0.0010614
3925.47	0.0011415
3935.12	0.0012442
3944.76	0.0012735
3954.41	0.0011796
3964.05	0.0013961
3973.69	0.001645
3983.34	0.001725
3992.98	0.001745
