Infrared Spectrum: 1-Butene, 3-methyl-
Formula: C 5 H 10
CAS: 563-45-1
State: gas
Origin: Sadtler Research Labs Under US-EPA Contract
1/CM	ABSORBANCE
450	0.00740109
462	0.00557484
474	0.00326801
486	0.00346025
498	0.00346025
510	0.00403696
522	0.00461366
534	0.00509425
546	0.00451755
558	0.00288354
570	0.0037486
582	0.00442143
594	0.00490202
606	0.00711273
618	0.00826615
630	0.0100924
642	0.0143216
654	0.0300849
666	0.05373
678	0.046425
690	0.040754
702	0.0162439
714	0.00797779
726	0.00538261
738	0.00538261
750	0.00509425
762	0.00490202
774	0.00682438
786	0.00797779
798	0.00999627
810	0.00893897
822	0.00778556
834	0.00922733
846	0.0104769
858	0.0123031
870	0.0158595
882	0.0384472
894	0.107075
906	0.197619
918	0.239526
930	0.173685
942	0.077375
954	0.0336413
966	0.0373899
978	0.0668981
990	0.101308
1002	0.120051
1014	0.0672826
1026	0.0347947
1038	0.0174935
1050	0.0104769
1062	0.0110536
1074	0.0158595
1086	0.0217227
1098	0.0256635
1110	0.0288354
1122	0.0273936
1134	0.024414
1146	0.021146
1158	0.0161478
1170	0.0132643
1182	0.00990015
1194	0.00672826
1206	0.00519037
1218	0.00547873
1230	0.00538261
1242	0.00557484
1254	0.00576708
1266	0.00768944
1278	0.0147061
1290	0.027682
1302	0.0393123
1314	0.0356598
1326	0.0248946
1338	0.0219149
1350	0.0300849
1362	0.0516154
1374	0.0747798
1386	0.0823731
1398	0.0534416
1410	0.0494047
1422	0.0541144
1434	0.0581514
1446	0.0658408
1458	0.0810275
1470	0.0947723
1482	0.0705506
1494	0.043157
1506	0.0188391
1518	0.00836227
1530	0.00470978
1542	0.00451755
1554	0.00461366
1566	0.00730497
1578	0.0106691
1590	0.0108613
1602	0.0102846
1614	0.0145138
1626	0.0460405
1638	0.0750682
1650	0.0768944
1662	0.0487318
1674	0.0116303
1686	0.00884286
1698	0.00740109
1710	0.00557484
1722	0.00461366
1734	0.00384472
1746	0.0026913
1758	0.00230683
1770	0.00230683
1782	0.00249907
1794	0.00355637
1806	0.00682438
1818	0.0173974
1830	0.0233567
1842	0.0204731
1854	0.00807391
1866	0.00297966
1878	0.00230683
1890	0.00182624
1902	0.00182624
1914	0.00163401
1926	0.0010573
1938	0.00124953
1950	0.00144177
1962	0.00230683
1974	0.00326801
1986	0.00317189
1998	0.00230683
2010	0.00173012
2022	0.000576708
2034	0.000576708
2046	0.000576708
2058	0.00096118
2070	0.000865062
2082	0.00124953
2094	0.00124953
2106	0.000865062
2118	0.000672826
2130	0.000384472
2142	0.00048059
2154	0.000865062
2166	0.000576708
2178	0.000288354
2190	0
2202	0.00048059
2214	0.000288354
2226	0.00048059
2238	0.00048059
2250	9.6118e-05
2262	0.00096118
2274	0.00153789
2286	0.00240295
2298	0.00346025
2310	0.00326801
2322	0.0021146
2334	0.00163401
2346	0.00134565
2358	0.00192236
2370	0.00134565
2382	0.00201848
2394	0.00163401
2406	0.00134565
2418	0.00173012
2430	0.00124953
2442	0.00144177
2454	0.00144177
2466	0.00173012
2478	0.00192236
2490	0.00201848
2502	0.00182624
2514	0.00115342
2526	0.00134565
2538	0.00173012
2550	0.00240295
2562	0.00394084
2574	0.00509425
2586	0.00499814
2598	0.00451755
2610	0.00422919
2622	0.00394084
2634	0.00365248
2646	0.00317189
2658	0.00288354
2670	0.00278742
2682	0.00240295
2694	0.00240295
2706	0.00422919
2718	0.00711273
2730	0.00990015
2742	0.0116303
2754	0.00999627
2766	0.0085545
2778	0.00874674
2790	0.00874674
2802	0.0112458
2814	0.0144177
2826	0.0162439
2838	0.0222033
2850	0.044022
2862	0.117552
2874	0.226646
2886	0.258365
2898	0.260191
2910	0.237027
2922	0.241448
2934	0.294313
2946	0.399082
2958	0.653795
2970	0.848337
2982	0.739916
2994	0.35208
3006	0.158114
3018	0.0847761
3030	0.0506542
3042	0.032584
3054	0.0375821
3066	0.0664175
3078	0.126684
3090	0.149367
3102	0.10227
3114	0.0403696
3126	0.017109
3138	0.0116303
3150	0.0115342
3162	0.0120148
3174	0.0119186
3186	0.013072
3198	0.0126876
3210	0.00990015
3222	0.0069205
3234	0.00413307
3246	0.00278742
3258	0.00221071
3270	0.0021146
3282	0.0021146
3294	0.00230683
3306	0.00278742
3318	0.00355637
3330	0.00346025
3342	0.00288354
3354	0.00221071
3366	0.00192236
3378	0.00096118
3390	0.00221071
3402	0.0021146
3414	0.00163401
3426	0.00115342
3438	0.000672826
3450	0.00096118
3462	0.00134565
3474	0.00182624
3486	0.00163401
3498	0.00096118
3510	0.00096118
3522	0.000672826
3534	0.000576708
3546	0.000384472
3558	0.000384472
3570	0.00096118
3582	0.000288354
3594	0.000672826
3606	9.6118e-05
3618	0.000192236
3630	0.000576708
3642	0.00134565
3654	0.00096118
3666	0.0010573
3678	0.000288354
3690	0.00144177
3702	0.000192236
3714	0.000672826
3726	0.0021146
3738	0.00163401
3750	0.00153789
3762	0.00115342
3774	0.00153789
3786	0.00144177
3798	0.0021146
3810	0.0026913
3822	0.00230683
3834	0.00288354
3846	0.00249907
3858	0.0021146
3870	0.00144177
3882	0.00201848
3894	0.0026913
3906	0.00144177
3918	0
3930	0
3942	0.000865062
3954	0.00115342
3966	0.00182624
