Infrared Spectrum: 1,4-DICHLORO-2-BUTENE
Formula: C4 H6 Cl2
CAS: 764-41-0
Class: COBLENTZ
Instrument: Not specified, most likely a prism, grating, or hybrid spectrometer.
Sampling: TRANSMISSION
Path length: 0.0025 CM
Resolution: 4
Origin: W.T. BOLLETER
MICROMETERS	TRANSMITTANCE
14.426	0
14.496	0
14.5659	0
14.6359	0
14.7058	0
14.7758	0
14.8457	0
14.9157	0.001
14.9856	0.001
15.0556	0.001
15.1255	0.001
15.1955	0.001
15.2654	0.001
15.3354	0.003
15.4053	0.007
15.4753	0.019
15.5452	0.03
15.6152	0.039
15.6851	0.078
15.7551	0.099
15.8251	0.139
15.895	0.185
15.965	0.229
16.0349	0.294
16.1049	0.336
16.1748	0.379
16.2448	0.424
16.3147	0.474
16.3847	0.532
16.4546	0.566
16.5246	0.593
16.5945	0.6
16.6645	0.609
16.7344	0.614
16.8044	0.648
16.8743	0.664
16.9443	0.686
17.0142	0.698
17.0842	0.7
17.1541	0.686
17.2241	0.661
17.2941	0.613
17.364	0.554
17.434	0.504
17.5039	0.447
17.5739	0.367
17.6438	0.306
17.7138	0.267
17.7837	0.269
17.8537	0.333
17.9236	0.427
17.9936	0.543
18.0635	0.654
18.1335	0.73
18.2034	0.787
18.2734	0.828
18.3433	0.857
18.4133	0.875
18.4832	0.889
18.5532	0.896
18.6232	0.898
18.6931	0.898
18.7631	0.9
18.833	0.901
18.903	0.907
18.9729	0.918
19.0429	0.926
19.1128	0.941
19.1828	0.946
19.2527	0.95
19.3227	0.948
19.3926	0.944
19.4626	0.939
19.5325	0.932
19.6025	0.919
19.6724	0.903
19.7424	0.885
19.8123	0.869
19.8823	0.853
19.9522	0.839
20.0222	0.825
20.0922	0.812
20.1621	0.8
20.2321	0.793
20.302	0.78
20.372	0.773
20.4419	0.771
20.5119	0.77
20.5818	0.773
20.6518	0.775
20.7217	0.784
20.7917	0.786
20.8616	0.796
20.9316	0.8
21.0015	0.803
21.0715	0.805
21.1414	0.805
21.2114	0.802
21.2813	0.796
21.3513	0.787
21.4213	0.777
21.4912	0.771
21.5612	0.768
21.6311	0.766
21.7011	0.766
21.771	0.77
21.841	0.777
21.9109	0.778
21.9809	0.78
22.0508	0.786
22.1208	0.786
22.1907	0.786
22.2607	0.787
22.3306	0.782
22.4006	0.777
22.4705	0.764
22.5405	0.745
22.6104	0.72
22.6804	0.68
22.7504	0.625
22.8203	0.559
22.8903	0.495
22.9602	0.422
23.0302	0.315
23.1001	0.221
23.1701	0.149
23.24	0.081
23.31	0.053
23.3799	0.03
23.4499	0.023
23.5198	0.021
23.5898	0.026
23.6597	0.033
23.7297	0.051
23.7996	0.101
23.8696	0.169
23.9395	0.263
24.0095	0.335
24.0794	0.401
24.1494	0.454
24.2194	0.506
24.2893	0.559
24.3593	0.593
24.4292	0.623
24.4992	0.643
24.5691	0.659
24.6391	0.673
24.709	0.682
24.779	0.695
24.8489	0.711
24.9189	0.727
24.9888	0.734
25.0588	0.736
25.1287	0.734
25.1987	0.73
25.2686	0.725
25.3386	0.714
25.4085	0.702
25.4785	0.695
25.5485	0.677
25.6184	0.655
25.6884	0.641
25.7583	0.622
25.8283	0.577
25.8982	0.554
25.9682	0.532
26.0381	0.499
26.1081	0.481
26.178	0.463
26.248	0.431
26.3179	0.417
26.3879	0.388
26.4578	0.368
26.5278	0.352
26.5977	0.34
26.6677	0.324
26.7376	0.315
26.8076	0.304
26.8775	0.292
26.9475	0.285
27.0175	0.274
27.0874	0.27
27.1574	0.267
27.2273	0.265
27.2973	0.26
27.3672	0.256
27.4372	0.254
27.5071	0.253
27.5771	0.256
27.647	0.253
27.717	0.247
27.7869	0.242
27.8569	0.229
27.9268	0.226
27.9968	0.224
28.0667	0.217
28.1367	0.213
28.2066	0.212
28.2766	0.215
28.3466	0.212
28.4165	0.212
28.4865	0.215
28.5564	0.215
28.6264	0.224
28.6963	0.233
28.7663	0.251
28.8362	0.281
28.9062	0.299
28.9761	0.324
29.0461	0.345
29.116	0.363
29.186	0.381
29.2559	0.404
29.3259	0.434
29.3958	0.452
29.4658	0.468
29.5357	0.484
29.6057	0.504
29.6756	0.516
29.7456	0.532
29.8156	0.55
29.8855	0.557
29.9555	0.563
30.0254	0.573
30.0954	0.579
30.1653	0.579
30.2353	0.584
30.3052	0.588
30.3752	0.59
30.4451	0.591
30.5151	0.591
30.585	0.59
30.655	0.588
30.7249	0.586
30.7949	0.586
30.8648	0.582
30.9348	0.582
31.0047	0.586
31.0747	0.588
31.1447	0.59
31.2146	0.591
31.2846	0.595
31.3545	0.598
31.4245	0.602
31.4944	0.606
31.5644	0.618
31.6343	0.623
31.7043	0.638
31.7742	0.65
31.8442	0.65
31.9141	0.65
31.9841	0.652
32.054	0.659
32.124	0.664
32.1939	0.666
32.2639	0.668
32.3338	0.67
32.4038	0.673
32.4738	0.677
32.5437	0.679
32.6137	0.68
32.6836	0.682
32.7536	0.689
32.8235	0.695
32.8935	0.698
32.9634	0.702
33.0334	0.696
33.1033	0.689
33.1733	0.68
33.2432	0.664
33.3132	0.65
33.3831	0.631
33.4531	0.627
33.523	0.627
33.593	0.623
33.6629	0.614
33.7329	0.611
33.8028	0.602
33.8728	0.598
33.9428	0.588
34.0127	0.582
34.0827	0.572
34.1526	0.568
34.2226	0.563
34.2925	0.554
34.3625	0.55
34.4324	0.549
34.5024	0.538
34.5723	0.515
34.6423	0.5
34.7122	0.483
34.7822	0.468
34.8521	0.458
34.9221	0.454
34.992	0.449
35.062	0.44
35.1319	0.445
35.2019	0.445
35.2719	0.442
35.3418	0.438
35.4118	0.436
35.4817	0.436
35.5517	0.436
35.6216	0.433
35.6916	0.429
35.7615	0.429
35.8315	0.429
35.9014	0.431
35.9714	0.431
36.0413	0.427
36.1113	0.424
36.1812	0.424
36.2512	0.426
36.3211	0.427
36.3911	0.426
36.461	0.429
36.531	0.429
36.6009	0.429
36.6709	0.429
36.7409	0.431
36.8108	0.429
36.8808	0.429
36.9507	0.431
37.0207	0.429
37.0906	0.433
37.1606	0.436
37.2305	0.449
37.3005	0.463
37.3704	0.465
37.4404	0.467
37.5103	0.465
37.5803	0.468
37.6502	0.488
37.7202	0.488
37.7901	0.488
37.8601	0.488
37.93	0.49
38	0.491
