Infrared Spectrum: 2-BUTENE, 1,4-DICHLORO-
Formula: C4 H6 Cl2
CAS: 764-41-0
State: SOLUTION (10% IN CCl4 FOR 3800-1333 AND 10% IN CS2 FOR 1333-400 CM^-^1)
Class: COBLENTZ III
Instrument: DOW KBr FOREPRISM-GRATING
Instrument parameters: BLAZED AT 3.5, 12.0, 20.0 MICRON, CHANGED AT 5.0, 7.5, 14.9 MICRON
Sampling: TRANSMISSION
Path length: 0.011, 0.010 CM
Resolution: 4
Origin: DOW CHEMICAL COMPANY
1/CM	TRANSMITTANCE
385.217	0.201
393.913	0.254
402.608	0.527
411.304	0.76
420	0.694
428.695	0.795
437.391	0.968
446.087	0.991
454.782	1.004
463.478	1.013
472.174	1.021
480.869	1.012
489.565	1.013
498.261	1.012
506.956	1.009
515.652	1.002
524.348	0.995
533.043	0.993
541.739	0.995
550.435	0.991
559.13	0.964
567.826	0.979
576.522	0.998
585.217	1.004
593.913	1.001
602.609	0.997
611.305	0.989
620	0.972
628.696	0.942
637.392	0.899
646.087	0.832
654.783	0.724
663.479	0.506
672.174	0.519
680.87	0.544
689.566	0.564
698.261	0.438
706.957	0.275
715.653	0.211
724.348	0.35
733.044	0.679
741.74	0.806
750.435	0.866
759.131	0.877
767.827	0.871
776.522	0.895
785.218	0.905
793.914	0.919
802.609	0.934
811.305	0.937
820.001	0.944
828.696	0.949
837.392	0.931
846.088	0.861
854.783	0.807
863.479	0.832
872.175	0.851
880.87	0.88
889.566	0.901
898.262	0.905
906.957	0.828
915.653	0.833
924.349	0.866
933.044	0.854
941.74	0.799
950.436	0.498
959.131	0.085
967.827	0.3471
976.523	0.798
985.218	0.885
993.914	0.915
1002.61	0.903
1011.31	0.862
1020	0.923
1028.7	0.949
1037.39	0.955
1046.09	0.94
1054.78	0.945
1063.48	0.927
1072.18	0.865
1080.87	0.675
1089.57	0.915
1098.26	0.971
1106.96	0.978
1115.65	0.976
1124.35	0.968
1133.04	0.901
1141.74	0.923
1150.44	0.925
1159.13	0.937
1167.83	0.933
1176.52	0.905
1185.22	0.931
1193.91	0.931
1202.61	0.934
1211.31	0.927
1220	0.896
1228.7	0.841
1237.39	0.5359
1246.09	0.144
1254.78	0.595
1263.48	0.711
1272.18	0.675
1280.87	0.777
1289.57	0.797
1298.26	0.753
1306.96	0.644
1315.65	0.5869
1324.35	0.7001
1333.05	0.884
1341.74	0.937
1350.44	0.961
1359.13	0.974
1367.83	0.982
1376.52	0.99
1385.22	1.004
1393.92	0.989
1402.61	0.978
1411.31	0.965
1420	0.929
1428.7	0.8219
1437.39	0.761
1446.09	0.4181
1454.78	0.871
1463.48	0.934
1472.18	0.945
1480.87	0.942
1489.57	0.919
1498.26	0.882
1506.96	0.821
1515.65	0.779
1524.35	0.734
1533.05	0.671
1541.74	0.574
1550.44	0.528
1559.13	0.568
1567.83	0.663
1576.52	0.707
1585.22	0.724
1593.92	0.776
1602.61	0.873
1611.31	0.935
1620	0.959
1628.7	0.964
1637.39	0.971
1646.09	0.971
1654.79	0.976
1663.48	0.972
1672.18	0.94
1680.87	0.97
1689.57	0.985
1698.26	0.967
1706.96	0.982
1715.65	0.972
1724.35	0.982
1733.05	0.976
1741.74	0.983
1750.44	0.982
1759.13	0.98
1767.83	0.985
1776.52	0.99
1785.22	0.991
1793.92	0.995
1802.61	1
1811.31	1
1820	1
1828.7	1.001
1837.39	0.998
1846.09	0.998
1854.79	0.993
1863.48	0.987
1872.18	0.989
1880.87	0.989
1889.57	0.989
1898.26	0.995
1906.96	1.001
1915.66	1.002
1924.35	1.005
1933.05	1.002
1941.74	1.002
1950.44	1.002
1959.13	1.004
1967.83	1.002
1976.53	1.001
1985.22	1
1993.92	0.998
2002.61	1.001
2011.31	1.0005
2020	1.002
2028.7	1.0015
2037.39	1
2046.09	1.001
2054.79	1.001
2063.48	1.001
2072.18	1.0015
2080.87	1.002
2089.57	1.001
2098.26	1
2106.96	1
2115.66	1
2124.35	1.001
2133.05	1.001
2141.74	1
2150.44	0.997
2159.13	0.995
2167.83	0.995
2176.53	0.996
2185.22	0.9945
2193.92	0.9945
2202.61	0.9935
2211.31	0.991
2220	0.9905
2228.7	0.989
2237.4	0.987
2246.09	0.985
2254.79	0.984
2263.48	0.978
2272.18	0.971
2280.87	0.967
2289.57	0.966
2298.27	0.9635
2306.96	0.963
2315.66	0.958
2324.35	0.956
2333.05	0.953
2341.74	0.946
2350.44	0.9585
2359.13	0.964
2367.83	0.967
2376.53	0.969
2385.22	0.967
2393.92	0.9705
2402.61	0.975
2411.31	0.978
2420	0.979
2428.7	0.979
2437.4	0.978
2446.09	0.978
2454.79	0.978
2463.48	0.9785
2472.18	0.978
2480.87	0.977
2489.57	0.9755
2498.27	0.9715
2506.96	0.973
2515.66	0.971
2524.35	0.97
2533.05	0.973
2541.74	0.972
2550.44	0.9705
2559.14	0.9705
2567.83	0.968
2576.53	0.968
2585.22	0.9675
2593.92	0.967
2602.61	0.965
2611.31	0.965
2620	0.964
2628.7	0.963
2637.4	0.965
2646.09	0.9645
2654.79	0.964
2663.48	0.964
2672.18	0.96
2680.87	0.9525
2689.57	0.9495
2698.27	0.944
2706.96	0.955
2715.66	0.956
2724.35	0.955
2733.05	0.9525
2741.74	0.9495
2750.44	0.954
2759.14	0.954
2767.83	0.957
2776.53	0.9565
2785.22	0.9555
2793.92	0.9535
2802.61	0.95
2811.31	0.9485
2820.01	0.9445
2828.7	0.936
2837.4	0.9075
2846.09	0.915
2854.79	0.894
2863.48	0.843
2872.18	0.8995
2880.88	0.9245
2889.57	0.931
2898.27	0.9265
2906.96	0.92
2915.66	0.913
2924.35	0.8855
2933.05	0.8196
2941.74	0.749
2950.44	0.6786
2959.14	0.5435
2967.83	0.6629
2976.53	0.8295
2985.22	0.8555
2993.92	0.8345
3002.61	0.84
3011.31	0.8675
3020.01	0.8695
3028.7	0.872
3037.4	0.852
3046.09	0.7855
3054.79	0.8755
3063.48	0.9175
3072.18	0.93
3080.88	0.935
3089.57	0.9395
3098.27	0.942
3106.96	0.945
3115.66	0.946
3124.35	0.948
3133.05	0.948
3141.75	0.949
3150.44	0.9495
3159.14	0.952
3167.83	0.955
3176.53	0.9555
3185.22	0.957
3193.92	0.9605
3202.62	0.957
3211.31	0.96
3220.01	0.958
3228.7	0.963
3237.4	0.963
3246.09	0.964
3254.79	0.965
3263.48	0.965
3272.18	0.965
3280.88	0.967
3289.57	0.9675
3298.27	0.968
3306.96	0.97
3315.66	0.97
3324.35	0.97
3333.05	0.9705
3341.75	0.9715
3350.44	0.975
3359.14	0.972
3367.83	0.972
3376.53	0.973
3385.22	0.9745
3393.92	0.978
3402.62	0.974
3411.31	0.974
3420.01	0.974
3428.7	0.9755
3437.4	0.974
3446.09	0.9715
3454.79	0.972
3463.49	0.9715
3472.18	0.971
3480.88	0.972
3489.57	0.972
3498.27	0.971
3506.96	0.972
3515.66	0.9705
3524.35	0.97
3533.05	0.97
3541.75	0.971
3550.44	0.971
3559.14	0.9715
3567.83	0.97
3576.53	0.97
3585.22	0.9675
3593.92	0.9715
3602.62	0.971
3611.31	0.97
3620.01	0.97
3628.7	0.964
3637.4	0.968
3646.09	0.961
3654.79	0.968
3663.49	0.969
3672.18	0.9635
3680.88	0.97
3689.57	0.9615
3698.27	0.968
3706.96	0.9675
3715.66	0.971
3724.36	0.968
3733.05	0.967
3741.75	0.9615
3750.44	0.9655
3759.14	0.972
3767.83	0.974
3776.53	0.978
3785.23	0.9745
3793.92	0.974
