Infrared Spectrum: 1-Bromo-2-methylpropane
Formula: C4 H9 Br
CAS: 78-77-3
State: SOLUTION (10% CCl4 FOR 3800-1340, 10% CS2 FOR 1340-430)
Class: COBLENTZ III
Instrument: DOW KBr FOREPRISM-GRATING
Instrument parameters: BLAZED AT 3.5, 12.0, 20.0 MICRON AND CHANGED AT 5.0, 7.5, 14.9 MICRON
Sampling: TRANSMISSION
Path length: 0.0116 CM, 0.0112 CM
Resolution: 2
Origin: DOW CHEMICAL COMPANY
1/CM	TRANSMITTANCE
3770	0.7752
3761	0.9247
3752	0.9243
3743	0.9192
3734	0.9193
3725	0.9264
3716	0.924
3707	0.9236
3698	0.9275
3689	0.9283
3680	0.9209
3671	0.9168
3662	0.9145
3653	0.9169
3644	0.9246
3635	0.9189
3626	0.9189
3617	0.9192
3608	0.9182
3599	0.9198
3590	0.9232
3581	0.9248
3572	0.9255
3563	0.9244
3554	0.9243
3545	0.925
3536	0.9253
3527	0.9233
3518	0.9229
3509	0.9223
3500	0.9219
3491	0.9221
3482	0.9225
3473	0.9228
3464	0.9233
3455	0.9235
3446	0.9236
3437	0.9236
3428	0.9228
3419	0.9218
3410	0.9207
3401	0.9194
3392	0.9183
3383	0.9175
3374	0.9175
3365	0.9174
3356	0.9174
3347	0.9173
3338	0.9192
3329	0.9181
3320	0.9186
3311	0.9206
3302	0.9195
3293	0.9198
3284	0.9201
3275	0.9217
3266	0.9221
3257	0.9227
3248	0.9231
3239	0.9194
3230	0.9147
3221	0.9122
3212	0.9103
3203	0.9074
3194	0.9088
3185	0.907
3176	0.9076
3167	0.9093
3158	0.9117
3149	0.9138
3140	0.9146
3131	0.9155
3122	0.9153
3113	0.9146
3104	0.9148
3095	0.9192
3086	0.9137
3077	0.9114
3068	0.9131
3059	0.9046
3050	0.8989
3041	0.8973
3032	0.8738
3023	0.8355
3014	0.7204
3005	0.6526
2996	0.5581
2987	0.2985
2978	0.0315
2969	0.0587
2960	0.2118
2951	0.3638
2942	0.3283
2933	0.3588
2924	0.4845
2915	0.5365
2906	0.5337
2897	0.5803
2888	0.6269
2879	0.3583
2870	0.4416
2861	0.7028
2852	0.7597
2843	0.8294
2834	0.8509
2825	0.8599
2816	0.8676
2807	0.8821
2798	0.8941
2789	0.898
2780	0.9029
2771	0.906
2762	0.909
2753	0.9107
2744	0.9032
2735	0.8951
2726	0.8998
2717	0.9059
2708	0.9134
2699	0.9154
2690	0.9151
2681	0.9127
2672	0.9098
2663	0.907
2654	0.9127
2645	0.917
2636	0.9185
2627	0.9192
2618	0.9108
2609	0.9076
2600	0.9073
2591	0.9122
2582	0.9179
2573	0.9203
2564	0.922
2555	0.9236
2546	0.9254
2537	0.9264
2528	0.9267
2519	0.927
2510	0.9272
2501	0.9275
2492	0.9276
2483	0.9278
2474	0.9291
2465	0.9288
2456	0.9277
2447	0.9282
2438	0.928
2429	0.9275
2420	0.9265
2411	0.9255
2402	0.9263
2393	0.9256
2384	0.9281
2375	0.9369
2366	0.9421
2357	0.9513
2348	0.9563
2339	0.9547
2330	0.9479
2321	0.9395
2312	0.9272
2303	0.918
2294	0.9189
2285	0.9192
2276	0.9208
2267	0.9215
2258	0.9224
2249	0.9229
2240	0.9247
2231	0.9262
2222	0.9285
2213	0.9292
2204	0.9294
2195	0.9277
2186	0.9267
2177	0.9276
2168	0.9265
2159	0.927
2150	0.9274
2141	0.9278
2132	0.9284
2123	0.9291
2114	0.9298
2105	0.9307
2096	0.9314
2087	0.9327
2078	0.933
2069	0.9329
2060	0.9322
2051	0.9319
2042	0.9295
2033	0.9273
2024	0.9267
2015	0.9243
2006	0.9228
1997	0.9192
1988	0.9195
1979	0.918
1970	0.917
1961	0.9177
1952	0.9163
1943	0.9155
1934	0.9154
1925	0.9143
1916	0.9134
1907	0.9139
1898	0.9143
1889	0.9128
1880	0.9137
1871	0.9142
1862	0.913
1853	0.9133
1844	0.9148
1835	0.9139
1826	0.914
1817	0.9158
1808	0.9144
1799	0.9131
1790	0.9132
1781	0.9133
1772	0.912
1763	0.9122
1754	0.9141
1745	0.9147
1736	0.9162
1727	0.9183
1718	0.9205
1709	0.915
1700	0.9147
1691	0.9134
1682	0.9126
1673	0.9127
1664	0.913
1655	0.915
1646	0.917
1637	0.9197
1628	0.9186
1619	0.9176
1610	0.9215
1601	0.887
1592	0.838
1583	0.8549
1574	0.8448
1565	0.8234
1556	0.7707
1547	0.7919
1538	0.8033
1529	0.8646
1520	0.8782
1511	0.8774
1502	0.8727
1493	0.8557
1484	0.8024
1475	0.6506
1466	0.2961
1457	0.5162
1448	0.6468
1439	0.7677
1430	0.6868
1421	0.8248
1412	0.8657
1403	0.8773
1394	0.856
1385	0.4096
1376	0.7518
1367	0.6061
1358	0.8371
1349	0.881
1340	0.866
1331	0.871
1322	0.7431
1313	0.6351
1304	0.8115
1295	0.8991
1286	0.9179
1277	0.9266
1268	0.9266
1259	0.9185
1250	0.8619
1241	0.4851
1232	0.0633
1223	0.7033
1214	0.8324
1205	0.8315
1196	0.8907
1187	0.9124
1178	0.9088
1169	0.8363
1160	0.9205
1151	0.9396
1142	0.907
1133	0.9548
1124	0.9599
1115	0.9383
1106	0.911
1097	0.9477
1088	0.9578
1079	0.9494
1070	0.9316
1061	0.8203
1052	0.9083
1043	0.9396
1034	0.9542
1025	0.9571
1016	0.9587
1007	0.9571
998	0.9557
989	0.9573
980	0.9553
971	0.9408
962	0.8389
953	0.8948
944	0.7269
935	0.8241
926	0.8375
917	0.9261
908	0.9564
899	0.9582
890	0.959
881	0.9546
872	0.9445
863	0.9281
854	0.796
845	0.9207
836	0.9362
827	0.9523
818	0.9372
809	0.8287
800	0.8753
791	0.8889
782	0.9511
773	0.9589
764	0.9587
755	0.959
746	0.9612
737	0.9618
728	0.962
719	0.9638
710	0.9608
701	0.96
692	0.9632
683	0.9609
674	0.9518
665	0.8716
656	0.4361
647	0.4888
638	0.8778
629	0.9118
620	0.5307
611	0.9348
602	0.9814
593	0.9929
584	0.9979
575	0.9851
566	0.9862
557	0.9865
548	0.9855
539	0.9865
530	0.9919
521	0.9959
512	0.9924
503	0.9889
494	0.9867
485	0.9774
476	0.9634
467	0.9149
458	0.8957
449	0.8977
440	0.8954
431	0.8929
422	0.8919
