Infrared Spectrum: Propane, 1-bromo-2-methyl-
Formula: C 4 H 9 Br
CAS: 78-77-3
State: gas
Origin: Sadtler Research Labs Under US-EPA Contract
1/CM	ABSORBANCE
450	0.0390016
462	0.0417939
474	0.0400825
486	0.0325164
498	0.00270219
510	0.0217977
522	0.0243197
534	0.0290035
546	0.0302645
558	0.0304447
570	0.0235991
582	0.0217977
594	0.0264815
606	0.0309851
618	0.0671044
630	0.0804352
642	0.077733
654	0.202124
666	0.202484
678	0.0368399
690	0.019726
702	0.030805
714	0.0294539
726	0.0236892
738	0.0290035
750	0.00855693
762	0.030895
774	0.0386413
786	0.0520622
798	0.0606191
810	0.0482791
822	0.0373803
834	0.038191
846	0.0511615
858	0.0565658
870	0.0500806
882	0.0457571
894	0.0338674
906	0.0385512
918	0.0873708
930	0.101602
942	0.0943064
954	0.0878212
966	0.0618802
978	0.0460273
990	0.0495402
1002	0.0562956
1014	0.058007
1026	0.0544942
1038	0.0508012
1050	0.0501707
1062	0.0479188
1074	0.0346781
1086	0.014772
1098	0.0401726
1110	0.0517019
1122	0.0484593
1134	0.0385512
1146	0.038191
1158	0.0590879
1170	0.0643121
1182	0.054314
1194	0.0499004
1206	0.0733194
1218	0.125021
1230	0.277605
1242	0.238693
1254	0.0634114
1266	0.039452
1278	0.035759
1290	0.0403527
1302	0.062961
1314	0.102323
1326	0.0989902
1338	0.0589978
1350	0.0449464
1362	0.0731393
1374	0.112771
1386	0.169157
1398	0.128714
1410	0.0464777
1422	0.0435053
1434	0.0782734
1446	0.113222
1458	0.141234
1470	0.176633
1482	0.129345
1494	0.0709775
1506	0.0304447
1518	0.0216175
1530	0.0193657
1542	0.0183749
1554	0.0194558
1566	0.0202664
1578	0.0204466
1590	0.0218877
1602	0.0198161
1614	0.0202664
1626	0.0214374
1638	0.0224282
1650	0.0252204
1662	0.0226984
1674	0.0229686
1686	0.0203565
1698	0.0181947
1710	0.0173841
1722	0.0181947
1734	0.019726
1746	0.0231488
1758	0.0217076
1770	0.0169337
1782	0.0149521
1794	0.0128804
1806	0.0111691
1818	0.00945767
1830	0.00927752
1842	0.00819664
1854	0.00828672
1866	0.0100882
1878	0.00891723
1890	0.0080165
1902	0.00747606
1914	0.00738599
1926	0.0066654
1938	0.00621504
1950	0.00621504
1962	0.00657533
1974	0.00648526
1986	0.00585475
1998	0.00540438
2010	0.00549445
2022	0.00540438
2034	0.00531431
2046	0.00621504
2058	0.00594482
2070	0.00639518
2082	0.00621504
2094	0.00648526
2106	0.00621504
2118	0.00630511
2130	0.00612496
2142	0.00495401
2154	0.00576467
2166	0.00639518
2178	0.00612496
2190	0.00648526
2202	0.00684555
2214	0.00594482
2226	0.00540438
2238	0.00603489
2250	0.00549445
2262	0.0056746
2274	0.00585475
2286	0.00702569
2298	0.00756613
2310	0.00738599
2322	0.00684555
2334	0.00216175
2346	0
2358	0.00405329
2370	0
2382	0.00144117
2394	0.00396321
2406	0.0043235
2418	0.00414336
2430	0.00324263
2442	0.00180146
2454	0.00198161
2466	0.00207168
2478	0.00198161
2490	0.00207168
2502	0.00297241
2514	0.00306248
2526	0.00261212
2538	0.00342277
2550	0.00297241
2562	0.00324263
2574	0.00279226
2586	0.00261212
2598	0.00405329
2610	0.00639518
2622	0.00729591
2634	0.00540438
2646	0.00585475
2658	0.00774628
2670	0.0090073
2682	0.00846686
2694	0.00711577
2706	0.00675548
2718	0.00756613
2730	0.0126102
2742	0.0157628
2754	0.0144117
2766	0.0127003
2778	0.01234
2790	0.0144117
2802	0.0171139
2814	0.0201764
2826	0.0253105
2838	0.0309851
2850	0.0552147
2862	0.107817
2874	0.218607
2886	0.240045
2898	0.201854
2910	0.198881
2922	0.233649
2934	0.297511
2946	0.410643
2958	0.580701
2970	0.90073
2982	0.760576
2994	0.355068
3006	0.130606
3018	0.0755712
3030	0.0347682
3042	0.0189153
3054	0.0180146
3066	0.0233289
3078	0.0245899
3090	0.0227885
3102	0.0206267
3114	0.0154025
3126	0.0117996
3138	0.011079
3150	0.0126102
3162	0.0118896
3174	0.0132407
3186	0.0122499
3198	0.0125201
3210	0.0105385
3222	0.00756613
3234	0.00297241
3246	0.00252204
3258	0.00279226
3270	0.00396321
3282	0.00342277
3294	0.00387314
3306	0.00270219
3318	0.00261212
3330	0.00387314
3342	0.00504409
3354	0.00378307
3366	0.00513416
3378	0.00360292
3390	0.00576467
3402	0.00387314
3414	0.00441358
3426	0.00360292
3438	0.00252204
3450	0.00558453
3462	0.00207168
3474	0.00297241
3486	0.00288234
3498	0.00387314
3510	0.00360292
3522	0.00378307
3534	0.00324263
3546	0.00495401
3558	0.00279226
3570	0.00459372
3582	0.00603489
3594	0.00702569
3606	0.00531431
3618	0.00324263
3630	0.0046838
3642	0.00855693
3654	0.00738599
3666	0.00441358
3678	0.00549445
3690	0.00450365
3702	0.00342277
3714	0.0046838
3726	0.00504409
3738	0.0043235
3750	0.00387314
3762	0.00522423
3774	0.00657533
3786	0.00621504
3798	0.00612496
3810	0.00657533
3822	0.00765621
3834	0.00621504
3846	0.0066654
3858	0.00810657
3870	0.0080165
3882	0.00720584
3894	0.0099981
3906	0.00756613
3918	0.00765621
3930	0.00855693
3942	0.00837679
3954	0.00792642
3966	0.00693562
