Infrared Spectrum: Methyl propiolate
Formula: C 4 H 4 O 2
CAS: 922-67-8
State: gas
Instrument: HP-GC/MS/IRD
Origin: NIST Mass Spectrometry Data Center
1/CM	ABSORBANCE
550	0.0007533
562	0.0007533
574	0.0005589
586	0.0017253
598	0.0021627
610	0.0021384
622	0.0034992
634	0.0100602
646	0.0130248
658	0.0290142
670	0.019926
682	0.0158436
694	0.011664
706	0.0051759
718	0.0042768
730	0.0056376
742	0.0081891
754	0.0161109
766	0.0098415
778	0.0074844
790	0.0035478
802	0.0018711
814	0.0022842
826	0.0044469
838	0.0088695
850	0.0096471
862	0.010206
874	0.0051273
886	0.0020655
898	0.0007533
910	0.0001458
922	2.43e-05
934	0
946	9.72e-05
958	0.0003402
970	0.0014337
982	0.0044712
994	0.007533
1006	0.0082863
1018	0.0056619
1030	0.0031104
1042	0.0029889
1054	0.00243
1066	0.0026001
1078	0.0025515
1090	0.0030132
1102	0.0044469
1114	0.0054432
1126	0.0058806
1138	0.0056376
1150	0.0072171
1162	0.0108135
1174	0.0183465
1186	0.030132
1198	0.0573237
1210	0.118948
1222	0.211556
1234	0.240084
1246	0.184461
1258	0.0691821
1270	0.0263169
1282	0.0164025
1294	0.0118584
1306	0.0089181
1318	0.0074844
1330	0.0073629
1342	0.0055404
1354	0.0037422
1366	0.004374
1378	0.0045441
1390	0.0045927
1402	0.0041553
1414	0.0052245
1426	0.0112509
1438	0.0161109
1450	0.0155763
1462	0.007047
1474	0.0042039
1486	0.0032319
1498	0.0027702
1510	0.0023328
1522	0.0022599
1534	0.0019926
1546	0.0019197
1558	0.0018225
1570	0.0017982
1582	0.0017253
1594	0.0016281
1606	0.001215
1618	0.0009234
1630	0.0008262
1642	0.0007776
1654	0.0008505
1666	0.0012879
1678	0.0025029
1690	0.0057348
1702	0.013851
1714	0.0335826
1726	0.0746253
1738	0.110662
1750	0.108621
1762	0.0826686
1774	0.0321246
1786	0.0088695
1798	0.002187
1810	0.0011421
1822	0.0008505
1834	0.0008748
1846	0.0008748
1858	0.0007533
1870	0.0005589
1882	0.0004374
1894	0.0006075
1906	0.0005103
1918	0.000486
1930	0.0003402
1942	0.0003402
1954	0.0004617
1966	0.0006561
1978	0.0008505
1990	0.0008991
2002	0.0008019
2014	0.0005589
2026	0.0006075
2038	0.0008748
2050	0.0013365
2062	0.0019683
2074	0.0028431
2086	0.0047871
2098	0.0101088
2110	0.0199746
2122	0.0269244
2134	0.0230607
2146	0.0103761
2158	0.0016038
2170	0.0005832
2182	0.0003402
2194	0.000243
2206	0.0002187
2218	0.0002187
2230	0.0002916
2242	0.0003159
2254	0.0003645
2266	0.0005103
2278	0.0005346
2290	0.0005346
2302	0.0004617
2314	0.0003159
2326	0.0002673
2338	0.0002673
2350	0.000243
2362	0.0003645
2374	0.0003402
2386	0.0002187
2398	0.000243
2410	0.0003159
2422	0.0004131
2434	0.0005832
2446	0.000729
2458	0.000729
2470	0.0006318
2482	0.0003888
2494	0.0001458
2506	4.86e-05
2518	2.43e-05
2530	0
2542	2.43e-05
2554	9.72e-05
2566	0.0001458
2578	0.000243
2590	0.0003402
2602	0.0004374
2614	0.0003888
2626	0.0003645
2638	0.0003645
2650	0.0004131
2662	0.0004374
2674	0.0003888
2686	0.0002916
2698	0.0001458
2710	0.0001701
2722	0.0001701
2734	0.0001458
2746	0.0001458
2758	0.0001215
2770	0.0001215
2782	4.86e-05
2794	0.0001215
2806	0.0002187
2818	0.0004617
2830	0.0010692
2842	0.0020898
2854	0.0022599
2866	0.0018225
2878	0.0012879
2890	0.001701
2902	0.0024057
2914	0.0028674
2926	0.0029403
2938	0.004131
2950	0.0104976
2962	0.0137781
2974	0.0135594
2986	0.0067068
2998	0.0049572
3010	0.0055404
3022	0.0049329
3034	0.0044469
3046	0.0035721
3058	0.00243
3070	0.0016281
3082	0.0013608
3094	0.0012393
3106	0.0011421
3118	0.0009477
3130	0.0007776
3142	0.0006318
3154	0.0005346
3166	0.0004617
3178	0.0005103
3190	0.0004131
3202	0.0002673
3214	0.000243
3226	0.0001458
3238	0.0002673
3250	0.0004617
3262	0.0008505
3274	0.0021384
3286	0.0040338
3298	0.0089424
3310	0.0166455
3322	0.0200232
3334	0.0179334
3346	0.0052245
3358	0.0009234
3370	0.0004617
3382	0.0003159
3394	0.000243
3406	0.0003402
3418	0.0003645
3430	0.0005832
3442	0.000972
3454	0.0015309
3466	0.0018954
3478	0.0018711
3490	0.0012636
3502	0.000729
3514	0.0004374
3526	0.0003159
3538	0.0002187
3550	0.0001701
3562	0.0001701
3574	9.72e-05
3586	0.0001701
3598	0.0001701
3610	9.72e-05
3622	9.72e-05
3634	4.86e-05
3646	2.43e-05
3658	0.0001215
3670	9.72e-05
3682	2.43e-05
3694	4.86e-05
3706	4.86e-05
3718	0
3730	0
3742	0
3754	0
3766	0
3778	4.86e-05
3790	2.43e-05
3802	2.43e-05
3814	2.43e-05
3826	0.0001215
3838	2.43e-05
