Infrared Spectrum: ACETONITRILE, DIBROMO-
Formula: C2 H Br2 N
CAS: 3252-43-5
State: SOLUTION (10% CCl4 FOR 3800-1330, 10% CS2 FOR 1330-400 CM^-^1)
Class: COBLENTZ III
Instrument: DOW KBr FOREPRISM-GRATING
Instrument parameters: BLAZED AT 3.5, 12.0, 20.0 MICRON AND CHANGED AT 5.0, 7.5, 14.9 MICRON
Sampling: TRANSMISSION
Path length: 0.010 CM, 0.011 CM
Resolution: 2
Origin: DOW CHEMICAL COMPANY
1/CM	TRANSMITTANCE
381	0.1766
390	0.1894
399	0.278
408	0.5472
417	0.6434
426	0.6888
435	0.6899
444	0.6018
453	0.6401
462	0.7865
471	0.8033
480	0.8134
489	0.82
498	0.8216
507	0.8214
516	0.8248
525	0.8278
534	0.8303
543	0.8328
552	0.8356
561	0.8383
570	0.84
579	0.8375
588	0.8382
597	0.8381
606	0.8232
615	0.7128
624	0.8033
633	0.8072
642	0.7874
651	0.7551
660	0.7061
669	0.6847
678	0.2607
687	0.0179
696	0.6201
705	0.7997
714	0.826
723	0.8359
732	0.844
741	0.8484
750	0.8507
759	0.8509
768	0.8486
777	0.8446
786	0.8398
795	0.84
804	0.841
813	0.84
822	0.8353
831	0.8183
840	0.7843
849	0.7065
858	0.7081
867	0.7415
876	0.7686
885	0.7858
894	0.7838
903	0.8071
912	0.8312
921	0.8349
930	0.8345
939	0.8284
948	0.8237
957	0.7706
966	0.4168
975	0.7876
984	0.8237
993	0.8247
1002	0.8178
1011	0.8307
1020	0.8309
1029	0.8313
1038	0.8313
1047	0.8298
1056	0.8282
1065	0.824
1074	0.8246
1083	0.824
1092	0.8174
1101	0.8
1110	0.7661
1119	0.4712
1128	0.5537
1137	0.7606
1146	0.7948
1155	0.8091
1164	0.8187
1173	0.8078
1182	0.8082
1191	0.8003
1200	0.7848
1209	0.7555
1218	0.6072
1227	0.7719
1236	0.7898
1245	0.798
1254	0.8043
1263	0.8028
1272	0.8057
1281	0.8118
1290	0.8121
1299	0.8128
1308	0.8144
1317	0.8151
1326	0.8165
1335	0.8262
1344	0.8313
1353	0.833
1362	0.8375
1371	0.8425
1380	0.8502
1389	0.8492
1398	0.8393
1407	0.8362
1416	0.8334
1425	0.8308
1434	0.8286
1443	0.8281
1452	0.8262
1461	0.8264
1470	0.8181
1479	0.8038
1488	0.7828
1497	0.754
1506	0.7189
1515	0.6778
1524	0.6307
1533	0.5556
1542	0.492
1551	0.4551
1560	0.494
1569	0.5826
1578	0.603
1587	0.6343
1596	0.7092
1605	0.7601
1614	0.7987
1623	0.8197
1632	0.8275
1641	0.8312
1650	0.8346
1659	0.8417
1668	0.8458
1677	0.8474
1686	0.8478
1695	0.8467
1704	0.8434
1713	0.84
1722	0.8427
1731	0.8456
1740	0.8485
1749	0.8498
1758	0.8512
1767	0.8525
1776	0.8523
1785	0.8517
1794	0.8509
1803	0.8498
1812	0.8485
1821	0.8462
1830	0.8448
1839	0.844
1848	0.8436
1857	0.8439
1866	0.8453
1875	0.8482
1884	0.8478
1893	0.8443
1902	0.8481
1911	0.8511
1920	0.8505
1929	0.8493
1938	0.8488
1947	0.8495
1956	0.8536
1965	0.8457
1974	0.8434
1983	0.8421
1992	0.8401
2001	0.8333
2010	0.8331
2019	0.8335
2028	0.8348
2037	0.8367
2046	0.8383
2055	0.8393
2064	0.8405
2073	0.8406
2082	0.8406
2091	0.8403
2100	0.8398
2109	0.8393
2118	0.8388
2127	0.8383
2136	0.8384
2145	0.8385
2154	0.8387
2163	0.8389
2172	0.8391
2181	0.8392
2190	0.8383
2199	0.8373
2208	0.8357
2217	0.8321
2226	0.81
2235	0.8067
2244	0.8105
2253	0.8271
2262	0.8271
2271	0.8246
2280	0.8251
2289	0.8297
2298	0.8344
2307	0.8375
2316	0.8533
2325	0.8483
2334	0.8431
2343	0.8438
2352	0.8452
2361	0.8436
2370	0.8428
2379	0.8418
2388	0.8411
2397	0.8403
2406	0.8396
2415	0.8387
2424	0.8391
2433	0.8403
2442	0.8418
2451	0.8444
2460	0.8467
2469	0.8488
2478	0.8502
2487	0.8507
2496	0.8512
2505	0.8517
2514	0.8517
2523	0.8516
2532	0.8515
2541	0.8514
2550	0.8514
2559	0.8515
2568	0.8516
2577	0.8518
2586	0.8523
2595	0.8527
2604	0.8531
2613	0.853
2622	0.853
2631	0.853
2640	0.8541
2649	0.8553
2658	0.8562
2667	0.8567
2676	0.857
2685	0.8571
2694	0.8571
2703	0.857
2712	0.8568
2721	0.8568
2730	0.857
2739	0.8571
2748	0.8571
2757	0.8565
2766	0.8561
2775	0.8561
2784	0.8561
2793	0.8562
2802	0.8563
2811	0.8564
2820	0.8566
2829	0.8542
2838	0.8521
2847	0.8531
2856	0.8525
2865	0.8514
2874	0.849
2883	0.846
2892	0.8428
2901	0.8427
2910	0.8452
2919	0.849
2928	0.8516
2937	0.8514
2946	0.8468
2955	0.8398
2964	0.8284
2973	0.8015
2982	0.7575
2991	0.5426
3000	0.5152
3009	0.7662
3018	0.8149
3027	0.8338
3036	0.844
3045	0.8492
3054	0.8536
3063	0.857
3072	0.8599
3081	0.8618
3090	0.863
3099	0.8643
3108	0.8653
3117	0.866
3126	0.8667
3135	0.8668
3144	0.8671
3153	0.8671
3162	0.8665
3171	0.8658
3180	0.8652
3189	0.8647
3198	0.8643
3207	0.8637
3216	0.8631
3225	0.8624
3234	0.8616
3243	0.8608
3252	0.8599
3261	0.8589
3270	0.8583
3279	0.8578
3288	0.8575
3297	0.8575
3306	0.858
3315	0.8583
3324	0.8587
3333	0.8592
3342	0.86
3351	0.8608
3360	0.8613
3369	0.8616
3378	0.862
3387	0.8623
3396	0.8627
3405	0.863
3414	0.8633
3423	0.8636
3432	0.8639
3441	0.8642
3450	0.865
3459	0.8656
3468	0.8664
3477	0.8671
3486	0.8678
3495	0.8687
3504	0.8695
3513	0.8703
3522	0.8712
3531	0.8721
3540	0.8734
3549	0.8743
3558	0.8751
3567	0.8758
3576	0.8767
3585	0.8774
3594	0.8778
3603	0.8785
3612	0.8797
3621	0.8807
3630	0.8815
3639	0.8818
3648	0.8821
3657	0.8824
3666	0.8821
3675	0.882
3684	0.8824
3693	0.8834
3702	0.8854
3711	0.8873
3720	0.8894
3729	0.8886
3738	0.8871
3747	0.8863
3756	0.8864
3765	0.8866
3774	0.8866
3783	0.8875
3792	0.8886
