Infrared Spectrum: Methylamine
Formula: C H 5 N
CAS: 74-89-5
State: gas
Origin: Sadtler Research Labs Under US-EPA Contract
1/CM	ABSORBANCE
450	0
462	0.0138351
474	0.0136196
486	0.0158608
498	0.0157746
510	0.0161194
522	0.0188347
534	0.0188347
546	0.0237912
558	0.0230154
570	0.0247825
582	0.0301269
594	0.0328853
606	0.0340059
618	0.0423242
630	0.0452981
642	0.0486599
654	0.056892
666	0.0644776
678	0.0799505
690	0.104086
702	0.120335
714	0.157961
726	0.211707
738	0.262738
750	0.31519
762	0.345231
774	0.294804
786	0.343852
798	0.328077
810	0.31032
822	0.234205
834	0.166883
846	0.10844
858	0.0845622
870	0.0675377
882	0.0497805
894	0.0435741
906	0.0355575
918	0.0311182
930	0.0340921
942	0.0256445
954	0.0262048
966	0.0358161
978	0.0306872
990	0.0375401
1002	0.0491771
1014	0.0624088
1026	0.0650379
1038	0.0618054
1050	0.0483582
1062	0.0746061
1074	0.0846053
1086	0.0562886
1098	0.0324112
1110	0.0261617
1122	0.027584
1134	0.0221103
1146	0.024567
1158	0.0245239
1170	0.0209897
1182	0.0177141
1194	0.0162918
1206	0.0149557
1218	0.0136627
1230	0.0135765
1242	0.0125852
1254	0.0117663
1266	0.0124559
1278	0.0117232
1290	0.0119818
1302	0.0126714
1314	0.0125852
1326	0.0144385
1338	0.015085
1350	0.0172831
1362	0.0212052
1374	0.0238343
1386	0.0280581
1398	0.0312044
1410	0.0332732
1422	0.0310751
1434	0.0431431
1446	0.0464618
1458	0.0454705
1470	0.0499098
1482	0.0414622
1494	0.0423242
1506	0.039221
1518	0.0348679
1530	0.0342645
1542	0.0346524
1554	0.0341352
1566	0.0374539
1578	0.0448671
1590	0.0546508
1602	0.0617623
1614	0.058616
1626	0.0701668
1638	0.0585729
1650	0.0590901
1662	0.0522372
1674	0.0427121
1686	0.0334025
1698	0.0290494
1710	0.0230585
1722	0.0213345
1734	0.0197398
1746	0.0174555
1758	0.0183606
1770	0.0180589
1782	0.0181451
1794	0.0188778
1806	0.0193088
1818	0.0196105
1830	0.0190071
1842	0.0188778
1854	0.0181882
1866	0.0165935
1878	0.0140937
1890	0.0131455
1902	0.0128007
1914	0.0126714
1926	0.0125421
1938	0.0125421
1950	0.0126714
1962	0.0125421
1974	0.0127145
1986	0.0126714
1998	0.0129731
2010	0.0130162
2022	0.0131024
2034	0.0136627
2046	0.0139213
2058	0.0138782
2070	0.0139213
2082	0.0130593
2094	0.0145678
2106	0.0134903
2118	0.0123266
2130	0.0121542
2142	0.0117663
2154	0.0122404
2166	0.0117663
2178	0.0118094
2190	0.0118094
2202	0.0119818
2214	0.0120249
2226	0.0119818
2238	0.0120249
2250	0.0119818
2262	0.0119818
2274	0.0121542
2286	0.0122835
2298	0.0129731
2310	0.0131024
2322	0.0130162
2334	0.0123266
2346	0.01293
2358	0.0123266
2370	0.0130593
2382	0.0131886
2394	0.0121111
2406	0.012068
2418	0.0125852
2430	0.0127576
2442	0.0121542
2454	0.01293
2466	0.0128438
2478	0.0128438
2490	0.0132317
2502	0.0131024
2514	0.0134472
2526	0.0139213
2538	0.014223
2550	0.0149557
2562	0.0152574
2574	0.0157315
2586	0.0155591
2598	0.0157746
2610	0.0156022
2622	0.0156453
2634	0.0157746
2646	0.0159039
2658	0.0157315
2670	0.0163349
2682	0.0166797
2694	0.0175417
2706	0.0190502
2718	0.0207311
2730	0.0253428
2742	0.0306441
2754	0.0397813
2766	0.0521941
2778	0.0707702
2790	0.0993455
2802	0.127102
2814	0.125378
2826	0.14529
2838	0.181235
2850	0.202699
2862	0.193303
2874	0.202053
2886	0.219681
2898	0.305493
2910	0.281314
2922	0.290451
2934	0.293813
2946	0.276142
2958	0.266703
2970	0.230628
2982	0.25067
2994	0.219336
3006	0.176236
3018	0.133265
3030	0.0988283
3042	0.0801229
3054	0.0602538
3066	0.0453843
3078	0.0352558
3090	0.0266358
3102	0.0214207
3114	0.0187054
3126	0.0166366
3138	0.0158608
3150	0.0152143
3162	0.0144816
3174	0.0144816
3186	0.0144385
3198	0.0151281
3210	0.0143523
3222	0.0143954
3234	0.0141799
3246	0.0143954
3258	0.0138782
3270	0.0141799
3282	0.0146971
3294	0.015085
3306	0.015516
3318	0.0153867
3330	0.0159039
3342	0.0170245
3354	0.017671
3366	0.0198691
3378	0.0197398
3390	0.0201708
3402	0.0190502
3414	0.0201708
3426	0.0180589
3438	0.0183175
3450	0.0168521
3462	0.0162056
3474	0.0156884
3486	0.0141799
3498	0.0143954
3510	0.0146109
3522	0.013792
3534	0.014223
3546	0.0127576
3558	0.0131886
3570	0.0132748
3582	0.0132748
3594	0.0123266
3606	0.01293
3618	0.0121542
3630	0.0132748
3642	0.0127576
3654	0.0123697
3666	0.0128869
3678	0.0125852
3690	0.01293
3702	0.0114646
3714	0.012499
3726	0.0123697
3738	0.0126714
3750	0.0119818
3762	0.0125852
3774	0.0144385
3786	0.0133179
3798	0.0127576
3810	0.0141799
3822	0.0137489
3834	0.014223
3846	0.0134041
3858	0.0164642
3870	0.0153005
3882	0.0147402
3894	0.0150419
3906	0.0147402
3918	0.0150419
3930	0.0156453
3942	0.0158177
3954	0.018102
3966	0.0157315
