Infrared Spectrum: 2-Bromopropene
Formula: C 3 H 5 Br
CAS: 557-93-7
State: gas
Instrument: HP-GC/MS/IRD
Origin: NIST Mass Spectrometry Data Center
1/CM	ABSORBANCE
550	0.0022851
562	0.0035883
574	0.0007128
586	0.0002601
598	0.0002583
610	0.0001899
622	0.0001881
634	0.0001314
646	8.28e-05
658	0.0002124
670	9.99e-05
682	0.0002088
694	0.0001332
706	0.0001422
718	9.45e-05
730	0.0001629
742	7.47e-05
754	0.0001044
766	0.000153
778	7.47e-05
790	3.42e-05
802	0.0001557
814	0.0003141
826	0.000504
838	0.0005607
850	0.0013635
862	0.0025758
874	0.0038151
886	0.0069165
898	0.0036918
910	0.0025911
922	0.0012609
934	0.0007911
946	0.0003888
958	0.0002007
970	0.00018
982	0.0002232
994	0.0002178
1006	0.0001602
1018	0.0001665
1030	0.0002259
1042	0.0002007
1054	0.0002727
1066	0.0004239
1078	0.0005103
1090	0.000603
1102	0.0005526
1114	0.0004815
1126	0.0005895
1138	0.0013338
1150	0.0045576
1162	0.0083943
1174	0.0085347
1186	0.0064386
1198	0.0014418
1210	0.0007551
1222	0.0006183
1234	0.000459
1246	0.0003501
1258	0.0003195
1270	0.0002934
1282	0.0004158
1294	0.0003249
1306	0.0003483
1318	0.0002826
1330	0.0002646
1342	0.0002934
1354	0.0004167
1366	0.0008946
1378	0.001053
1390	0.001476
1402	0.0009261
1414	0.0010377
1426	0.0014643
1438	0.0019125
1450	0.001539
1462	0.0011376
1474	0.0006795
1486	0.0004095
1498	0.0002277
1510	0.0001377
1522	0.0001791
1534	0.0002421
1546	0.000297
1558	0.0003339
1570	0.0003825
1582	0.0005319
1594	0.0009918
1606	0.001971
1618	0.003663
1630	0.0047376
1642	0.0043758
1654	0.0028962
1666	0.0007902
1678	0.000279
1690	0.0001305
1702	0.0001647
1714	0.0001521
1726	0.0001674
1738	0.0001728
1750	0.0002484
1762	0.0004068
1774	0.000387
1786	0.000378
1798	0.0002151
1810	0.0001215
1822	0.0001269
1834	9.09e-05
1846	6.84e-05
1858	0.0001107
1870	0.0001053
1882	0.0001008
1894	7.83e-05
1906	0.0001008
1918	5.76e-05
1930	0.0001071
1942	9e-05
1954	9e-05
1966	6.12e-05
1978	9.63e-05
1990	0.0001161
2002	9.27e-05
2014	7.29e-05
2026	9.81e-05
2038	6.84e-05
2050	8.37e-05
2062	5.22e-05
2074	0.000126
2086	9e-05
2098	6.93e-05
2110	8.37e-05
2122	7.29e-05
2134	6.39e-05
2146	9.09e-05
2158	9.36e-05
2170	4.5e-05
2182	1.89e-05
2194	5.31e-05
2206	6.3e-05
2218	5.76e-05
2230	5.4e-05
2242	9.27e-05
2254	0.0001044
2266	9.81e-05
2278	5.94e-05
2290	9.54e-05
2302	7.47e-05
2314	6.39e-05
2326	7.56e-05
2338	0.0001053
2350	6.66e-05
2362	7.74e-05
2374	7.11e-05
2386	8.46e-05
2398	0.0001053
2410	0.0001053
2422	0.0001314
2434	0.000108
2446	0.0001413
2458	6.21e-05
2470	0.000126
2482	0.0001017
2494	8.19e-05
2506	9e-05
2518	2.79e-05
2530	0.0001134
2542	8.82e-05
2554	0.0001269
2566	8.46e-05
2578	6.03e-05
2590	6.3e-05
2602	0.0001026
2614	0.0001134
2626	7.11e-05
2638	1.62e-05
2650	5.58e-05
2662	9.45e-05
2674	6.48e-05
2686	2.25e-05
2698	2.7e-05
2710	5.85e-05
2722	7.92e-05
2734	9.09e-05
2746	6.93e-05
2758	0.0001476
2770	7.2e-05
2782	0.0001089
2794	0.0002043
2806	0.0001764
2818	0.0001521
2830	0.0002133
2842	0.0003276
2854	0.0003825
2866	0.0004041
2878	0.0005319
2890	0.0005535
2902	0.0006399
2914	0.0010836
2926	0.0013824
2938	0.0015273
2950	0.0015642
2962	0.0016848
2974	0.0027306
2986	0.0022851
2998	0.0019674
3010	0.0009756
3022	0.0006597
3034	0.0004536
3046	0.0003375
3058	0.0003555
3070	0.0002556
3082	0.0002646
3094	0.0003636
3106	0.0005022
3118	0.0004068
3130	0.0003528
3142	0.0002646
3154	9.9e-05
3166	0.000153
3178	0.0001044
3190	1.71e-05
3202	0.0001314
3214	0.0001197
3226	0.0001746
3238	0.0001314
3250	0.0001359
3262	8.73e-05
3274	0.0001854
3286	0.0001197
3298	0.0001341
3310	0.000117
3322	8.1e-05
3334	7.47e-05
3346	1.17e-05
3358	2.25e-05
3370	7.92e-05
3382	8.19e-05
3394	0.0001116
3406	7.29e-05
3418	0.000126
3430	0.0001512
3442	0.000108
3454	0.0001233
3466	0.0001431
3478	0.0001719
3490	0.0001152
3502	0.000135
3514	0.0001602
3526	8.01e-05
3538	8.46e-05
3550	0.0002358
3562	0.0001377
3574	6.12e-05
3586	0.0001116
3598	0.0001548
3610	0.000216
3622	0.0002718
3634	0.0001746
3646	0.0001638
3658	0.0001998
3670	0.0002088
3682	0.0001107
3694	0.0001341
3706	0.0001557
3718	0.0002133
3730	0.0001188
3742	0.0001656
3754	0.0001062
3766	0.0001053
3778	0.0002403
3790	0.0001332
3802	0.0001935
3814	0.0001971
3826	0.0002223
3838	0.0002277
