Infrared Spectrum: 3-CHLORO-1-BUTENE
Formula: C4 H7 Cl
CAS: 563-52-0
Class: COBLENTZ
Instrument: Not specified, most likely a prism, grating, or hybrid spectrometer.
Sampling: TRANSMISSION
Path length: 0.0025 CM
Resolution: 4
Origin: W.T. BOLLETER
MICROMETERS	TRANSMITTANCE
14.524	0.071
14.5943	0.097
14.6646	0.145
14.7349	0.204
14.8052	0.261
14.8754	0.323
14.9457	0.368
15.016	0.403
15.0863	0.423
15.1566	0.43
15.2269	0.427
15.2972	0.423
15.3675	0.425
15.4378	0.419
15.508	0.393
15.5783	0.35
15.6486	0.295
15.7189	0.245
15.7892	0.185
15.8595	0.144
15.9298	0.112
16.0001	0.097
16.0704	0.092
16.1406	0.09
16.2109	0.092
16.2812	0.099
16.3515	0.106
16.4218	0.117
16.4921	0.135
16.5624	0.161
16.6327	0.172
16.703	0.179
16.7732	0.17
16.8435	0.161
16.9138	0.153
16.9841	0.149
17.0544	0.165
17.1247	0.199
17.195	0.252
17.2653	0.327
17.3356	0.402
17.4058	0.464
17.4761	0.535
17.5464	0.596
17.6167	0.64
17.687	0.677
17.7573	0.713
17.8276	0.749
17.8979	0.772
17.9682	0.797
18.0384	0.822
18.1087	0.836
18.179	0.845
18.2493	0.854
18.3196	0.864
18.3899	0.868
18.4602	0.871
18.5305	0.871
18.6007	0.87
18.671	0.866
18.7413	0.857
18.8116	0.85
18.8819	0.839
18.9522	0.832
19.0225	0.816
19.0928	0.798
19.1631	0.777
19.2333	0.754
19.3036	0.725
19.3739	0.679
19.4442	0.644
19.5145	0.587
19.5848	0.544
19.6551	0.5
19.7254	0.473
19.7957	0.448
19.8659	0.439
19.9362	0.441
20.0065	0.462
20.0768	0.492
20.1471	0.537
20.2174	0.571
20.2877	0.603
20.358	0.647
20.4283	0.669
20.4985	0.688
20.5688	0.702
20.6391	0.715
20.7094	0.724
20.7797	0.725
20.85	0.724
20.9203	0.715
20.9906	0.701
21.0609	0.677
21.1311	0.651
21.2014	0.622
21.2717	0.587
21.342	0.544
21.4123	0.503
21.4826	0.466
21.5529	0.4
21.6232	0.346
21.6935	0.297
21.7637	0.249
21.834	0.222
21.9043	0.202
21.9746	0.193
22.0449	0.197
22.1152	0.215
22.1855	0.258
22.2558	0.302
22.3261	0.37
22.3963	0.423
22.4666	0.487
22.5369	0.553
22.6072	0.599
22.6775	0.658
22.7478	0.697
22.8181	0.729
22.8884	0.763
22.9587	0.782
23.0289	0.807
23.0992	0.829
23.1695	0.848
23.2398	0.861
23.3101	0.88
23.3804	0.889
23.4507	0.898
23.521	0.903
23.5913	0.909
23.6615	0.914
23.7318	0.918
23.8021	0.925
23.8724	0.93
23.9427	0.934
24.013	0.937
24.0833	0.941
24.1536	0.943
24.2239	0.948
24.2941	0.951
24.3644	0.953
24.4347	0.957
24.505	0.959
24.5753	0.959
24.6456	0.959
24.7159	0.96
24.7862	0.962
24.8565	0.967
24.9267	0.982
24.997	0.985
25.0673	0.992
25.1376	0.994
25.2079	0.992
25.2782	0.992
25.3485	0.992
25.4188	0.994
25.4891	0.996
25.5593	0.994
25.6296	0.992
25.6999	0.989
25.7702	0.989
25.8405	0.991
25.9108	0.987
25.9811	0.985
26.0514	0.985
26.1217	0.985
26.1919	0.989
26.2622	0.985
26.3325	0.983
26.4028	0.983
26.4731	0.983
26.5434	0.985
26.6137	0.982
26.684	0.98
26.7542	0.975
26.8245	0.967
26.8948	0.966
26.9651	0.962
27.0354	0.959
27.1057	0.959
27.176	0.959
27.2463	0.96
27.3166	0.962
27.3868	0.966
27.4571	0.966
27.5274	0.967
27.5977	0.969
27.668	0.969
27.7383	0.969
27.8086	0.964
27.8789	0.96
27.9492	0.953
28.0194	0.946
28.0897	0.93
28.16	0.914
28.2303	0.895
28.3006	0.879
28.3709	0.85
28.4412	0.825
28.5115	0.797
28.5818	0.75
28.652	0.701
28.7223	0.66
28.7926	0.626
28.8629	0.587
28.9332	0.558
29.0035	0.546
29.0738	0.542
29.1441	0.546
29.2144	0.556
29.2846	0.576
29.3549	0.599
29.4252	0.631
29.4955	0.661
29.5658	0.686
29.6361	0.702
29.7064	0.727
29.7767	0.743
29.847	0.759
29.9172	0.765
29.9875	0.766
30.0578	0.761
30.1281	0.756
30.1984	0.747
30.2687	0.736
30.339	0.718
30.4093	0.701
30.4796	0.672
30.5498	0.647
30.6201	0.624
30.6904	0.604
30.7607	0.587
30.831	0.565
30.9013	0.558
30.9716	0.553
31.0419	0.542
31.1122	0.539
31.1824	0.535
31.2527	0.535
31.323	0.539
31.3933	0.544
31.4636	0.542
31.5339	0.542
31.6042	0.549
31.6745	0.551
31.7448	0.551
31.815	0.546
31.8853	0.539
31.9556	0.53
32.0259	0.517
32.0962	0.505
32.1665	0.498
32.2368	0.489
32.3071	0.48
32.3774	0.476
32.4476	0.473
32.5179	0.473
32.5882	0.475
32.6585	0.482
32.7288	0.503
32.7991	0.521
32.8694	0.537
32.9397	0.56
33.01	0.578
33.0802	0.599
33.1505	0.608
33.2208	0.622
33.2911	0.635
33.3614	0.64
33.4317	0.644
33.502	0.649
33.5723	0.654
33.6426	0.658
33.7128	0.654
33.7831	0.651
33.8534	0.647
33.9237	0.637
33.994	0.626
34.0643	0.613
34.1346	0.601
34.2049	0.59
34.2751	0.578
34.3454	0.56
34.4157	0.553
34.486	0.544
34.5563	0.528
34.6266	0.51
34.6969	0.501
34.7672	0.485
34.8375	0.469
34.9077	0.46
34.978	0.455
35.0483	0.446
35.1186	0.435
35.1889	0.435
35.2592	0.435
35.3295	0.435
35.3998	0.435
35.4701	0.439
35.5403	0.441
35.6106	0.443
35.6809	0.446
35.7512	0.448
35.8215	0.45
35.8918	0.455
35.9621	0.46
36.0324	0.467
36.1027	0.473
36.1729	0.475
36.2432	0.48
36.3135	0.485
36.3838	0.494
36.4541	0.5
36.5244	0.51
36.5947	0.523
36.665	0.528
36.7353	0.533
36.8055	0.54
36.8758	0.546
36.9461	0.549
37.0164	0.555
37.0867	0.558
37.157	0.562
37.2273	0.567
37.2976	0.571
37.3679	0.576
37.4381	0.576
37.5084	0.578
37.5787	0.578
37.649	0.58
37.7193	0.58
37.7896	0.58
37.8599	0.578
37.9302	0.581
38.0005	0.581
