Infrared Spectrum: 1-Butene, 3-chloro-
Formula: C 4 H 7 Cl
CAS: 563-52-0
State: gas
Origin: Sadtler Research Labs Under US-EPA Contract
1/CM	ABSORBANCE
450	0.0407767
462	0.021736
474	0.0127373
486	0
498	0.0122591
510	0.0143458
522	0.00495581
534	0.00734677
546	0.0029561
558	0.0024779
570	0.00765107
582	0.0184756
594	0.031039
606	0.0436894
618	0.0596001
630	0.0571222
642	0.0497754
654	0.0232575
666	0.0146066
678	0.0597305
690	0.150196
702	0.280307
714	0.311477
726	0.17767
738	0.0474714
750	0.0171714
762	0.0150848
774	0.0157369
786	0.0113027
798	0.00773802
810	0.00830315
822	0.00882482
834	0.020171
846	0.0515143
858	0.0869005
870	0.0830315
882	0.0540792
894	0.0385597
906	0.113114
918	0.293088
930	0.375728
942	0.229054
954	0.132372
966	0.144979
978	0.209535
990	0.190147
1002	0.150326
1014	0.149935
1026	0.196972
1038	0.170541
1050	0.0810318
1062	0.0527315
1074	0.0650341
1086	0.0608608
1098	0.047428
1110	0.0383858
1122	0.0312129
1134	0.0214752
1146	0.0298653
1158	0.0498189
1170	0.0654688
1182	0.059774
1194	0.0328214
1206	0.0465585
1218	0.12233
1230	0.201493
1242	0.216447
1254	0.14737
1266	0.0875526
1278	0.0370816
1290	0.0425591
1302	0.0382988
1314	0.0278221
1326	0.0193016
1338	0.0164324
1350	0.0175192
1362	0.0375163
1374	0.076902
1386	0.10442
1398	0.0900305
1410	0.0997248
1422	0.109767
1434	0.10855
1446	0.0978555
1458	0.105333
1470	0.0629909
1482	0.029474
1494	0.0105637
1506	0.00560789
1518	0.00347776
1530	0.00308651
1542	0.00352123
1554	0.00343429
1566	0.00399942
1578	0.00382554
1590	0.00382554
1602	0.0079119
1614	0.0149109
1626	0.0289089
1638	0.046515
1650	0.04808
1662	0.0299522
1674	0.0137806
1686	0.0101724
1698	0.00856398
1710	0.00778149
1722	0.00743371
1734	0.00960731
1746	0.0126938
1758	0.0117374
1770	0.00673816
1782	0.00312998
1794	0.00204318
1806	0.00239096
1818	0.00239096
1830	0.00617302
1842	0.0248225
1854	0.0339516
1866	0.0297348
1878	0.00865093
1890	0.00339082
1902	0.00360818
1914	0.00304304
1926	0.00378206
1938	0.00412984
1950	0.00456456
1962	0.00478192
1974	0.00412984
1986	0.0024779
1998	0.0018693
2010	0.00204318
2022	0.00104333
2034	0.000521664
2046	0.000695552
2058	0.00043472
2070	0.00086944
2082	0.000608608
2094	0.00126069
2106	0.0013911
2118	0.00178235
2130	0.00126069
2142	0.00143458
2154	0.00160846
2166	0.00117374
2178	0.00152152
2190	0.00173888
2202	0.000999856
2214	0.00152152
2226	0.00213013
2238	0.00265179
2250	0.00330387
2262	0.00330387
2274	0.00347776
2286	0.00291262
2298	0.00147805
2310	0.000391248
2322	0.00086944
2334	0.00178235
2346	0.00378206
2358	0.000260832
2370	0.00569483
2382	0.00547747
2394	0.0040429
2406	0.00369512
2418	0.00391248
2430	0.00408637
2442	0.00473845
2454	0.00608608
2466	0.00639038
2478	0.00478192
2490	0.00365165
2502	0.0032604
2514	0.0035647
2526	0.00456456
2538	0.00517317
2550	0.00469498
2562	0.00482539
2574	0.00378206
2586	0.00482539
2598	0.00491234
2610	0.00386901
2622	0.00386901
2634	0.00408637
2646	0.00369512
2658	0.00382554
2670	0.00352123
2682	0.00308651
2694	0.00278221
2706	0.00226054
2718	0.00412984
2730	0.00560789
2742	0.00656427
2754	0.00591219
2766	0.00339082
2778	0.00230402
2790	0.00252138
2802	0.00439067
2814	0.00686858
2826	0.00960731
2838	0.0112158
2850	0.0145196
2862	0.031865
2874	0.0569483
2886	0.0658166
2898	0.0663383
2910	0.0630344
2922	0.100464
2934	0.171323
2946	0.184278
2958	0.140719
2970	0.18706
2982	0.374468
2994	0.400203
3006	0.256485
3018	0.144371
3030	0.0829446
3042	0.0553399
3054	0.0392552
3066	0.0403855
3078	0.0673381
3090	0.0943342
3102	0.102464
3114	0.0682076
3126	0.0234314
3138	0.00912912
3150	0.00647733
3162	0.00552094
3174	0.00625997
3186	0.00617302
3198	0.00552094
3210	0.00678163
3222	0.00747718
3234	0.00647733
3246	0.00417331
3258	0.00486886
3270	0.00452109
3282	0.00460803
3294	0.00495581
3306	0.00473845
3318	0.00486886
3330	0.00291262
3342	0.00265179
3354	0.00265179
3366	0.00265179
3378	0.0024779
3390	0.0040429
3402	0.00173888
3414	0.00308651
3426	0.00243443
3438	0.00243443
3450	0.00360818
3462	0.00399942
3474	0.00378206
3486	0.00552094
3498	0.0043472
3510	0.00417331
3522	0.00439067
3534	0.000608608
3546	0.00273874
3558	0.00252138
3570	0.000825968
3582	0.00191277
3594	0.00273874
3606	0.00104333
3618	0.00252138
3630	0.00260832
3642	0.00360818
3654	0.00308651
3666	0.00260832
3678	0.00430373
3690	0.00365165
3702	0.00382554
3714	0.00499928
3726	0.00408637
3738	0.00399942
3750	0.0024779
3762	0.00430373
3774	0.00308651
3786	0.00156499
3798	0.00234749
3810	0.00426026
3822	0.00530358
3834	0.00282568
3846	0.00160846
3858	0.00391248
3870	0.00460803
3882	0.00021736
3894	0.00412984
3906	0.00204318
3918	0.00569483
3930	0.00369512
3942	0.00486886
3954	0.00152152
3966	0.00556442
