Infrared Spectrum: 2-PENTENE, 2-METHYL-
Formula: C6 H12
CAS: 625-27-4
State: SOLUTION (10% IN CCl4 FOR 3800-1330, 5% IN CS2 FOR 1330-670, AND 10% IN CCl4 FOR 670-460 CM^-^1)
Class: COBLENTZ III
Instrument: DOW KBr FOREPRISM-GRATING
Instrument parameters: BLAZED AT 3.5, 12.0, 20.0 MICRON, CHANGED AT 5.0, 7.5, 14.9 MICRON
Sampling: TRANSMISSION
Path length: 0.011, 0.021, AND 0.011 CM
Resolution: 4
Origin: DOW CHEMICAL COMPANY
1/CM	TRANSMITTANCE
456.46	0.891
465.146	0.886
473.832	0.901
482.519	0.963
491.205	0.994
499.891	1.006
508.577	1
517.264	0.979
525.95	1.002
534.636	1.025
543.322	1.042
552.009	1.053
560.695	1.069
569.381	1.076
578.067	1.083
586.754	1.087
595.44	1.091
604.126	1.094
612.812	1.095
621.498	1.095
630.185	1.092
638.871	1.084
647.557	1.064
656.243	1.055
664.93	1.077
673.616	1.083
682.302	1.08
690.988	1.077
699.675	1.074
708.361	1.07
717.047	1.065
725.733	1.051
734.42	1.014
743.106	0.806
751.792	0.918
760.478	1.021
769.164	1.042
777.851	1.047
786.537	1.039
795.223	1.031
803.909	1.006
812.596	0.955
821.282	0.851
829.968	0.47
838.654	0.49
847.341	0.856
856.027	0.859
864.713	0.892
873.399	0.94
882.086	0.978
890.772	1.006
899.458	1.009
908.144	0.908
916.83	1.034
925.517	1.066
934.203	1.074
942.889	1.076
951.575	1.072
960.262	1.057
968.948	1.036
977.634	0.972
986.32	0.874
995.007	1.012
1003.69	1.027
1012.38	1.023
1021.07	1.049
1029.75	1.044
1038.44	1.028
1047.12	0.985
1055.81	0.852
1064.5	0.705
1073.18	0.8461
1081.87	1.005
1090.56	1.032
1099.24	1.036
1107.93	1.017
1116.61	0.92
1125.3	0.863
1133.99	1.049
1142.67	1.064
1151.36	1.074
1160.05	1.083
1168.73	1.087
1177.42	1.081
1186.1	1.079
1194.79	1.062
1203.48	0.9589
1212.16	0.957
1220.85	1.053
1229.53	1.065
1238.22	1.061
1246.91	1.042
1255.59	1.017
1264.28	0.998
1272.97	1.014
1281.65	1.016
1290.34	1
1299.02	0.918
1307.71	0.8401
1316.4	0.963
1325.08	0.968
1333.77	0.961
1342.46	0.956
1351.14	0.919
1359.83	0.893
1368.51	0.803
1377.2	0.3969
1385.89	0.4911
1394.57	0.814
1403.26	0.85
1411.95	0.831
1420.63	0.777
1429.32	0.662
1438	0.434
1446.69	0.28
1455.38	0.2971
1464.06	0.362
1472.75	0.6481
1481.44	0.757
1490.12	0.798
1498.81	0.806
1507.49	0.779
1516.18	0.741
1524.87	0.708
1533.55	0.645
1542.24	0.555
1550.93	0.52
1559.61	0.576
1568.3	0.658
1576.98	0.692
1585.67	0.715
1594.36	0.784
1603.04	0.865
1611.73	0.908
1620.42	0.933
1629.1	0.934
1637.79	0.942
1646.47	0.944
1655.16	0.933
1663.85	0.899
1672.53	0.87
1681.22	0.961
1689.91	0.986
1698.59	1
1707.28	1.004
1715.96	1.006
1724.65	1.002
1733.34	1.001
1742.02	1.001
1750.71	1.008
1759.4	1.01
1768.08	1.009
1776.77	1.009
1785.45	1.009
1794.14	1.01
1802.83	1.004
1811.51	1.001
1820.2	1.001
1828.89	1.002
1837.57	1.002
1846.26	1.002
1854.94	1.002
1863.63	1
1872.32	1.004
1881	1.005
1889.69	1.001
1898.37	0.997
1907.06	1.002
1915.75	1.008
1924.43	1.009
1933.12	1.008
1941.81	1.008
1950.49	1.002
1959.18	0.993
1967.86	1.002
1976.55	1.008
1985.24	1.012
1993.92	1.016
2002.61	1.0245
2011.3	1.025
2019.98	1.0275
2028.67	1.0275
2037.35	1.0294
2046.04	1.032
2054.73	1.029
2063.41	1.031
2072.1	1.0296
2080.79	1.0263
2089.47	1.031
2098.16	1.0301
2106.84	1.0301
2115.53	1.0276
2124.22	1.0274
2132.9	1.0302
2141.59	1.0298
2150.28	1.031
2158.96	1.028
2167.65	1.0276
2176.33	1.024
2185.02	1.024
2193.71	1.023
2202.39	1.024
2211.08	1.0257
2219.77	1.028
2228.45	1.0286
2237.14	1.0247
2245.82	1.024
2254.51	1.021
2263.2	1.0183
2271.88	1.011
2280.57	1.004
2289.26	1.002
2297.94	1.0053
2306.63	1.009
2315.31	1.01
2324	1.012
2332.69	1.0123
2341.37	1.0137
2350.06	1.014
2358.75	1.0163
2367.43	1.017
2376.12	1.0163
2384.8	1.016
2393.49	1.019
2402.18	1.019
2410.86	1.021
2419.55	1.0198
2428.24	1.019
2436.92	1.019
2445.61	1.0192
2454.29	1.02
2462.98	1.021
2471.67	1.023
2480.35	1.023
2489.04	1.023
2497.73	1.017
2506.41	1.013
2515.1	1.013
2523.78	1.0144
2532.47	1.017
2541.16	1.0168
2549.84	1.0129
2558.53	1.0092
2567.22	1.0121
2575.9	1.013
2584.59	1.012
2593.27	1.0086
2601.96	1.008
2610.65	1.0102
2619.33	1.0131
2628.02	1.016
2636.7	1.012
2645.39	1.005
2654.08	1.0091
2662.76	1.01
2671.45	1.0099
2680.14	1.008
2688.82	1.008
2697.51	1.0059
2706.19	0.9908
2714.88	0.9608
2723.57	0.9074
2732.25	0.87
2740.94	0.9154
2749.63	0.9442
2758.31	0.948
2767	0.955
2775.68	0.957
2784.37	0.9439
2793.06	0.915
2801.74	0.882
2810.43	0.858
2819.12	0.8221
2827.8	0.7642
2836.49	0.6663
2845.17	0.5167
2853.86	0.2071
2862.55	0.205
2871.23	0.1095
2879.92	0.1806
2888.61	0.2317
2897.29	0.2244
2905.98	0.1452
2914.66	0.0773
2923.35	0.0647
2932.04	0.0549
2940.72	0.1497
2949.41	0.1504
2958.1	0.0328
2966.78	0.0117
2975.47	0.0648
2984.15	0.1166
2992.84	0.2385
3001.53	0.4552
3010.21	0.6141
3018.9	0.7035
3027.59	0.716
3036.27	0.73
3044.96	0.8014
3053.64	0.8155
3062.33	0.8493
3071.02	0.8991
3079.7	0.9193
3088.39	0.9306
3097.08	0.9348
3105.76	0.945
3114.45	0.946
3123.13	0.946
3131.82	0.9484
3140.51	0.9534
3149.19	0.9568
3157.88	0.957
3166.57	0.957
3175.25	0.9608
3183.94	0.9678
3192.62	0.9743
3201.31	0.9788
3210	0.9815
3218.68	0.98
3227.37	0.98
3236.06	0.98
3244.74	0.98
3253.43	0.9797
3262.11	0.9814
3270.8	0.9823
3279.49	0.9793
3288.17	0.98
3296.86	0.98
3305.54	0.978
3314.23	0.9766
3322.92	0.97
3331.6	0.971
3340.29	0.971
3348.98	0.968
3357.66	0.9673
3366.35	0.9594
3375.03	0.9554
3383.72	0.952
3392.41	0.949
3401.09	0.95
3409.78	0.946
3418.47	0.949
3427.15	0.955
3435.84	0.9542
3444.52	0.957
3453.21	0.9636
3461.9	0.967
3470.58	0.9716
3479.27	0.9746
3487.96	0.978
3496.64	0.98
3505.33	0.9811
3514.01	0.9866
3522.7	0.987
3531.39	0.989
3540.07	0.985
3548.76	0.985
3557.45	0.9905
3566.13	0.993
3574.82	1.0116
3583.5	0.9945
3592.19	0.9945
3600.88	1
3609.56	0.994
3618.25	0.995
3626.94	0.994
3635.62	0.995
3644.31	0.995
3652.99	0.9945
3661.68	0.993
3670.37	0.9921
3679.05	0.9876
3687.74	0.9693
3696.43	0.989
3705.11	0.991
3713.8	0.9944
3722.48	0.995
3731.17	0.997
3739.86	0.998
3748.54	0.9918
3757.23	0.994
3765.92	0.9906
3774.6	0.993
3783.29	0.994
3791.97	0.993
