Infrared Spectrum: 2-Pentene, 2-methyl-
Formula: C 6 H 12
CAS: 625-27-4
State: gas
Origin: Sadtler Research Labs Under US-EPA Contract
1/CM	ABSORBANCE
450	0.00691868
462	0.00845616
474	0.0055586
486	0.00396198
498	0.00520379
510	0.00739175
522	0.00768742
534	0.00473072
546	0.00354804
558	0.00088701
570	0.00248363
582	0.000354804
594	0.00118268
606	0.00088701
618	0.00183315
630	0.0027793
642	0.000650474
654	0.00100528
666	0.000118268
678	0.0029567
690	0.00514466
702	0.00490812
714	0.00549946
726	0.00798309
738	0.0127138
750	0.0130095
762	0.0100528
774	0.00845616
786	0.0111763
798	0.015907
810	0.0254868
822	0.0358943
834	0.0455332
846	0.0333516
858	0.0201056
870	0.0144878
882	0.0173263
894	0.0249545
906	0.0270834
918	0.0217613
930	0.015434
942	0.0184498
954	0.0249545
966	0.0293305
978	0.0280886
990	0.0243041
1002	0.0208743
1014	0.0199873
1026	0.0203421
1038	0.0227075
1050	0.0308088
1062	0.0371953
1074	0.0357761
1086	0.0255459
1098	0.0223527
1110	0.0320506
1122	0.037077
1134	0.0289165
1146	0.0169123
1158	0.0158479
1170	0.0153748
1182	0.0162027
1194	0.0204604
1206	0.0257233
1218	0.0261372
1230	0.0204012
1242	0.0204012
1254	0.0203421
1266	0.0183315
1278	0.0177402
1290	0.0219978
1302	0.0349482
1314	0.035303
1326	0.0240675
1338	0.0208152
1350	0.0251911
1362	0.0418077
1374	0.0760463
1386	0.0901794
1398	0.0637465
1410	0.0373727
1422	0.0395606
1434	0.0597253
1446	0.0873409
1458	0.0973346
1470	0.0816049
1482	0.0552903
1494	0.0307497
1506	0.0173854
1518	0.0138374
1530	0.0124773
1542	0.0109989
1554	0.0111763
1566	0.0106441
1578	0.0104076
1590	0.00957971
1602	0.00946144
1614	0.0102893
1626	0.0130095
1638	0.0146652
1650	0.0160253
1662	0.0179767
1674	0.0178585
1686	0.0148426
1698	0.0126547
1710	0.014133
1722	0.011472
1734	0.0090475
1746	0.00898837
1758	0.00827876
1770	0.00662301
1782	0.00502639
1794	0.00478985
1806	0.00467159
1818	0.00360717
1830	0.00266103
1842	0.00242449
1854	0.00254276
1866	0.00266103
1878	0.00212882
1890	0.00266103
1902	0.00254276
1914	0.00266103
1926	0.00212882
1938	0.00147835
1950	0.00201056
1962	0.00254276
1974	0.0026019
1986	0.00206969
1998	0.00177402
2010	0.00201056
2022	0.00212882
2034	0.00206969
2046	0.00254276
2058	0.00248363
2070	0.00254276
2082	0.0026019
2094	0.00206969
2106	0.00206969
2118	0.00212882
2130	0.00206969
2142	0.00212882
2154	0.00201056
2166	0.00201056
2178	0.00206969
2190	0.00201056
2202	0.00236536
2214	0.00206969
2226	0.00159662
2238	0.00153748
2250	0.00159662
2262	0.00147835
2274	0.00189229
2286	0.00183315
2298	0.00141922
2310	0.000413938
2322	0.00059134
2334	0.00159662
2346	0.00254276
2358	0.000709608
2370	0.00496726
2382	0.00354804
2394	0.00342977
2406	0.00342977
2418	0.00337064
2430	0.00337064
2442	0.00325237
2454	0.0033115
2466	0.00337064
2478	0.00289757
2490	0.0027793
2502	0.00319324
2514	0.0033115
2526	0.0033115
2538	0.00354804
2550	0.00360717
2562	0.00425765
2574	0.00473072
2586	0.00431678
2598	0.00467159
2610	0.00419851
2622	0.00366631
2634	0.00366631
2646	0.00384371
2658	0.00449418
2670	0.00520379
2682	0.0055586
2694	0.0062682
2706	0.00739175
2718	0.0104076
2730	0.0173854
2742	0.0224118
2754	0.0206969
2766	0.0154931
2778	0.0153748
2790	0.0179176
2802	0.0231214
2814	0.0302175
2826	0.040152
2838	0.0577148
2850	0.101533
2862	0.190944
2874	0.279053
2886	0.324054
2898	0.318318
2910	0.314475
2922	0.377748
2934	0.443919
2946	0.417959
2958	0.441317
2970	0.59134
2982	0.560945
2994	0.327366
3006	0.191772
3018	0.115311
3030	0.0819597
3042	0.0645743
3054	0.0491404
3066	0.0378458
3078	0.0306314
3090	0.0247771
3102	0.0196325
3114	0.0164393
3126	0.0150792
3138	0.0125364
3150	0.0110581
3162	0.0090475
3174	0.00739175
3186	0.00514466
3198	0.00307497
3210	0.00218796
3222	0.00112355
3234	0.00112355
3246	0.00029567
3258	0.000532206
3270	0.000532206
3282	0.000946144
3294	0.000768742
3306	0.000768742
3318	0.00147835
3330	0.00201056
3342	0.00242449
3354	0.00189229
3366	0.00136008
3378	0.00189229
3390	0.00195142
3402	0.00218796
3414	0.00153748
3426	0.00177402
3438	0.00189229
3450	0.00130095
3462	0.00153748
3474	0.00189229
3486	0.000827876
3498	0.000768742
3510	0.00124181
3522	0.00130095
3534	0.00130095
3546	0.00165575
3558	0.00112355
3570	0.00159662
3582	0.00212882
3594	0.00171489
3606	0.00171489
3618	0.00147835
3630	0.00307497
3642	0.00408025
3654	0.00402111
3666	0.0027793
3678	0.00124181
3690	0.000413938
3702	0.00248363
3714	0.00266103
3726	0.00183315
3738	0.000650474
3750	0
3762	0.00153748
3774	0.00189229
3786	0.00147835
3798	0.000709608
3810	0.00130095
3822	0.000946144
3834	0.00124181
3846	0.000473072
3858	0.000177402
3870	0.00029567
3882	0.000473072
3894	0.000709608
3906	0.000768742
3918	5.9134e-05
3930	0.00136008
3942	0.00165575
3954	0.00183315
3966	0.000473072
