Infrared Spectrum: 2-Methyl-2-propen-1-ol
Formula: C 4 H 8 O
CAS: 513-42-8
State: gas
Instrument: HP-GC/MS/IRD
Origin: NIST Mass Spectrometry Data Center
1/CM	ABSORBANCE
550	0.0039641
562	0.0029351
574	0.0017738
586	0.0011123
598	0.0005194
610	0.0002254
622	7.35e-05
634	6.86e-05
646	7.35e-05
658	3.43e-05
670	0.0001372
682	0.000196
694	0.0003185
706	0.0003185
718	0.0002303
730	7.35e-05
742	4.41e-05
754	0.0001176
766	0.0002744
778	0.0005831
790	0.0011319
802	0.0017248
814	0.002205
826	0.0021952
838	0.0020433
850	0.0025872
862	0.0053361
874	0.011417
886	0.0186739
898	0.0319921
910	0.0253967
922	0.0202762
934	0.0144795
946	0.011319
958	0.0114219
970	0.0116865
982	0.0142982
994	0.0226086
1006	0.0369362
1018	0.0479171
1030	0.0486668
1042	0.0398027
1054	0.0307034
1066	0.0247107
1078	0.0193403
1090	0.0118433
1102	0.0067473
1114	0.0049784
1126	0.0039984
1138	0.0037289
1150	0.0042679
1162	0.0058849
1174	0.007742
1186	0.0090258
1198	0.0094227
1210	0.0085848
1222	0.0073255
1234	0.0063504
1246	0.0057183
1258	0.0055566
1270	0.0057232
1282	0.0060368
1294	0.0064288
1306	0.0068894
1318	0.0073206
1330	0.0079674
1342	0.0090944
1354	0.0115689
1366	0.0147931
1378	0.0162876
1390	0.0156408
1402	0.0119168
1414	0.0093051
1426	0.0098588
1438	0.0118629
1450	0.012985
1462	0.0118237
1474	0.0093933
1486	0.0057673
1498	0.0030968
1510	0.0018375
1522	0.0013328
1534	0.0011515
1546	0.0012152
1558	0.0013671
1570	0.0015484
1582	0.0017444
1594	0.0018963
1606	0.0021315
1618	0.0027636
1630	0.0041258
1642	0.0059045
1654	0.0065366
1666	0.0058849
1678	0.00392
1690	0.0016856
1702	0.0009604
1714	0.0008673
1726	0.001029
1738	0.0010829
1750	0.0010633
1762	0.0009849
1774	0.0009065
1786	0.0012593
1798	0.0017395
1810	0.0019306
1822	0.0015827
1834	0.0008134
1846	0.0002744
1858	9.31e-05
1870	3.92e-05
1882	3.92e-05
1894	3.43e-05
1906	1.47e-05
1918	4.9e-06
1930	1.47e-05
1942	1.96e-05
1954	5.39e-05
1966	0.0001323
1978	0.0001862
1990	0.0002009
2002	0.0002205
2014	0.0002989
2026	0.000343
2038	0.000392
2050	0.0003626
2062	0.000294
2074	0.0002499
2086	0.0002303
2098	0.0002156
2110	0.0002303
2122	0.000196
2134	0.0001225
2146	7.35e-05
2158	5.88e-05
2170	6.86e-05
2182	7.84e-05
2194	7.35e-05
2206	5.39e-05
2218	2.94e-05
2230	4.9e-06
2242	4.9e-06
2254	3.43e-05
2266	4.9e-05
2278	6.37e-05
2290	7.35e-05
2302	9.8e-05
2314	0.0001568
2326	0.0001862
2338	0.0002058
2350	0.0002107
2362	0.0002205
2374	0.0002695
2386	0.0002499
2398	0.0002597
2410	0.0002548
2422	0.0001911
2434	0.0001862
2446	0.0001715
2458	0.0001911
2470	0.0001862
2482	0.0001862
2494	0.0002156
2506	0.0001862
2518	0.000147
2530	0.0001421
2542	0.0001078
2554	0.0001323
2566	0.0001519
2578	0.0001568
2590	0.0001666
2602	0.0002254
2614	0.0003185
2626	0.0003577
2638	0.0004214
2650	0.0004949
2662	0.0006027
2674	0.0007546
2686	0.0010339
2698	0.0012789
2710	0.0016219
2722	0.0019306
2734	0.0022393
2746	0.0025529
2758	0.0026999
2770	0.0029008
2782	0.0033222
2794	0.0039543
2806	0.0048363
2818	0.0063308
2830	0.0089572
2842	0.0137298
2854	0.0199577
2866	0.0252007
2878	0.028028
2890	0.0274841
2902	0.0280182
2914	0.0306397
2926	0.0329329
2938	0.0331681
2950	0.0299684
2962	0.0249214
2974	0.0231476
2986	0.0205898
2998	0.0167335
3010	0.010388
3022	0.0065611
3034	0.0048804
3046	0.0047824
3058	0.0066738
3070	0.0106869
3082	0.012495
3094	0.0116571
3106	0.0069874
3118	0.0028126
3130	0.0011662
3142	0.0006811
3154	0.0004312
3166	0.000245
3178	0.0001274
3190	6.37e-05
3202	5.39e-05
3214	2.94e-05
3226	4.9e-06
3238	3.92e-05
3250	1.96e-05
3262	7.35e-05
3274	8.82e-05
3286	4.41e-05
3298	8.33e-05
3310	0.0001225
3322	0.0001176
3334	0.000147
3346	0.0002352
3358	0.0002695
3370	0.0003528
3382	0.0003577
3394	0.0003626
3406	0.0004312
3418	0.0003724
3430	0.0004067
3442	0.0003871
3454	0.0004165
3466	0.0004459
3478	0.0003969
3490	0.0004459
3502	0.0004802
3514	0.000392
3526	0.000441
3538	0.0004312
3550	0.0004067
3562	0.0004459
3574	0.0005096
3586	0.000588
3598	0.0008232
3610	0.0013965
3622	0.0027832
3634	0.0050862
3646	0.0090013
3658	0.0102067
3670	0.0093884
3682	0.0066885
3694	0.0035574
3706	0.001568
3718	0.0009261
3730	0.0007497
3742	0.0005341
3754	0.0005243
3766	0.0004851
3778	0.0003969
3790	0.0004116
3802	0.0004508
3814	0.0004557
3826	0.0005292
3838	0.0006517
