Infrared Spectrum: Cyclopentane
Formula: C 5 H 10
CAS: 287-92-3
State: gas
Origin: Sadtler Research Labs Under US-EPA Contract
1/CM	ABSORBANCE
450	0
462	0.0049247
474	0.00374277
486	0.00610663
498	0.00610663
510	0.00728856
522	0.00847048
534	0.00866747
546	0.00847048
558	0.00728856
570	0.00610663
582	0.00630362
594	0.00551566
606	0.00768253
618	0.00748554
630	0.00748554
642	0.00571265
654	0.00512169
666	0.00512169
678	0.00669759
690	0.0065006
702	0.00630362
714	0.00571265
726	0.00610663
738	0.00709157
750	0.00669759
762	0.00689458
774	0.00590964
786	0.00709157
798	0.00748554
810	0.00748554
822	0.00847048
834	0.00925844
846	0.00925844
858	0.0130012
870	0.0216687
882	0.0252145
894	0.0401856
906	0.0220627
918	0.0246235
930	0.016153
942	0.0124102
954	0.0118193
966	0.0110313
978	0.0100464
990	0.00886446
1002	0.00787952
1014	0.00768253
1026	0.00709157
1038	0.00709157
1050	0.0065006
1062	0.00590964
1074	0.00630362
1086	0.00610663
1098	0.00610663
1110	0.00669759
1122	0.00630362
1134	0.00709157
1146	0.00669759
1158	0.0065006
1170	0.00669759
1182	0.00728856
1194	0.00748554
1206	0.00807651
1218	0.00925844
1230	0.00925844
1242	0.0100464
1254	0.0102434
1266	0.0100464
1278	0.00945542
1290	0.00906145
1302	0.00925844
1314	0.00925844
1326	0.00866747
1338	0.00847048
1350	0.00748554
1362	0.00847048
1374	0.0106374
1386	0.0128042
1398	0.0141831
1410	0.01635
1422	0.0175319
1434	0.0287602
1446	0.0541717
1458	0.0594904
1470	0.0598844
1482	0.0447163
1494	0.0238355
1506	0.0151681
1518	0.0128042
1530	0.0112283
1542	0.00669759
1554	0.0065006
1566	0.00571265
1578	0.00374277
1590	0.00531868
1602	0.00453072
1614	0.0049247
1626	0.00531868
1638	0.00393976
1650	0.00630362
1662	0.00413675
1674	0.00551566
1686	0.00354578
1698	0.0049247
1710	0.0049247
1722	0.00531868
1734	0.00433374
1746	0.00571265
1758	0.00531868
1770	0.00472771
1782	0.0049247
1794	0.00393976
1806	0.00453072
1818	0.00393976
1830	0.00453072
1842	0.00472771
1854	0.00453072
1866	0.00512169
1878	0.00531868
1890	0.00512169
1902	0.00531868
1914	0.00512169
1926	0.00453072
1938	0.00413675
1950	0.00413675
1962	0.00413675
1974	0.00413675
1986	0.00413675
1998	0.00433374
2010	0.00472771
2022	0.00531868
2034	0.00551566
2046	0.00551566
2058	0.00571265
2070	0.00551566
2082	0.0049247
2094	0.00453072
2106	0.0049247
2118	0.0049247
2130	0.0049247
2142	0.00551566
2154	0.00630362
2166	0.00689458
2178	0.00886446
2190	0.00787952
2202	0.00748554
2214	0.00610663
2226	0.00590964
2238	0.00571265
2250	0.00630362
2262	0.00630362
2274	0.00590964
2286	0.00610663
2298	0.00531868
2310	0.00571265
2322	0.00669759
2334	0.00807651
2346	0.00886446
2358	0.00630362
2370	0.00590964
2382	0.00472771
2394	0.00413675
2406	0.00413675
2418	0.00413675
2430	0.00354578
2442	0.00354578
2454	0.00374277
2466	0.00393976
2478	0.00393976
2490	0.00413675
2502	0.00374277
2514	0.00315181
2526	0.00315181
2538	0.00295482
2550	0.00354578
2562	0.00393976
2574	0.00571265
2586	0.00807651
2598	0.00925844
2610	0.00886446
2622	0.00689458
2634	0.00630362
2646	0.00551566
2658	0.00512169
2670	0.00512169
2682	0.0049247
2694	0.0049247
2706	0.00551566
2718	0.00689458
2730	0.00847048
2742	0.00906145
2754	0.0100464
2766	0.0106374
2778	0.0137892
2790	0.0198958
2802	0.0250175
2814	0.033094
2826	0.0449133
2838	0.0667789
2850	0.130603
2862	0.327394
2874	0.467059
2886	0.509411
2898	0.495228
2910	0.439677
2922	0.520442
2934	0.748554
2946	1.1183
2958	1.12539
2970	1.25048
2982	0.922889
2994	0.4905
3006	0.192457
3018	0.098888
3030	0.0590964
3042	0.0350639
3054	0.0212747
3066	0.0130012
3078	0.00886446
3090	0.00728856
3102	0.0065006
3114	0.00531868
3126	0.00551566
3138	0.00531868
3150	0.00551566
3162	0.0065006
3174	0.00689458
3186	0.00728856
3198	0.00709157
3210	0.00689458
3222	0.00531868
3234	0.00531868
3246	0.00472771
3258	0.00433374
3270	0.00433374
3282	0.0033488
3294	0.00354578
3306	0.00315181
3318	0.00315181
3330	0.00354578
3342	0.00374277
3354	0.0033488
3366	0.00413675
3378	0.00374277
3390	0.00393976
3402	0.00393976
3414	0.00374277
3426	0.00393976
3438	0.00393976
3450	0.00453072
3462	0.00512169
3474	0.00531868
3486	0.00689458
3498	0.00669759
3510	0.00669759
3522	0.00551566
3534	0.00531868
3546	0.00512169
3558	0.0065006
3570	0.00571265
3582	0.0049247
3594	0.0049247
3606	0.00453072
3618	0.00393976
3630	0.00256084
3642	0.00453072
3654	0.00590964
3666	0.00551566
3678	0.00393976
3690	0.0049247
3702	0.0065006
3714	0.00571265
3726	0.00669759
3738	0.00630362
3750	0.00669759
3762	0.00669759
3774	0.00728856
3786	0.00689458
3798	0.00748554
3810	0.0082735
3822	0.00689458
3834	0.00768253
3846	0.00748554
3858	0.00807651
3870	0.00689458
3882	0.00669759
3894	0.00669759
3906	0.00728856
3918	0.00669759
3930	0.00689458
3942	0.00669759
3954	0.00610663
3966	0.0065006
