Infrared Spectrum: CYCLOPENTANE
Formula: C5 H10
CAS: 287-92-3
State: LIQUID (NEAT)
Class: COBLENTZ III
Instrument: PERKIN-ELMER 180 (GRATING)
Instrument parameters: GRATING CHANGES AT 2000, 1000, 500, 250 CM^-^1
Sampling: TRANSMISSION
Path length: 0.006 CM, KBr CRYSTALS
Resolution: 4
Origin: STANDARD OIL OF OHIO
1/CM	TRANSMITTANCE
295.165	0.026
305.343	0.047
315.521	0.075
325.699	0.113
335.878	0.173
346.056	0.243
356.234	0.317
366.412	0.401
376.59	0.473
386.768	0.541
396.946	0.598
407.125	0.652
417.303	0.707
427.481	0.74
437.659	0.766
447.837	0.791
458.015	0.799
468.193	0.82
478.372	0.832
488.55	0.839
498.728	0.876
508.906	0.863
519.084	0.839
529.262	0.762
539.44	0.701
549.618	0.774
559.797	0.829
569.975	0.855
580.153	0.863
590.331	0.867
600.509	0.866
610.687	0.87
620.865	0.872
631.044	0.874
641.222	0.871
651.4	0.869
661.578	0.862
671.756	0.861
681.934	0.862
692.112	0.856
702.291	0.859
712.469	0.849
722.647	0.767
732.825	0.831
743.003	0.831
753.181	0.802
763.359	0.776
773.538	0.788
783.716	0.791
793.894	0.8
804.072	0.8
814.25	0.786
824.428	0.78
834.606	0.765
844.785	0.744
854.963	0.713
865.141	0.663
875.319	0.52
885.497	0.254
895.675	0.2981
905.853	0.556
916.032	0.682
926.21	0.719
936.388	0.72
946.566	0.7
956.744	0.669
966.922	0.664
977.1	0.707
987.278	0.749
997.457	0.787
1007.63	0.806
1017.81	0.802
1027.99	0.805
1038.17	0.817
1048.35	0.826
1058.53	0.83
1068.7	0.831
1078.88	0.844
1089.06	0.842
1099.24	0.835
1109.42	0.825
1119.59	0.815
1129.77	0.808
1139.95	0.793
1150.13	0.79
1160.31	0.769
1170.49	0.751
1180.66	0.739
1190.84	0.727
1201.02	0.723
1211.2	0.72
1221.38	0.716
1231.55	0.708
1241.73	0.696
1251.91	0.69
1262.09	0.681
1272.27	0.678
1282.44	0.672
1292.62	0.667
1302.8	0.618
1312.98	0.484
1323.16	0.718
1333.34	0.759
1343.51	0.761
1353.69	0.762
1363.87	0.751
1374.05	0.714
1384.23	0.703
1394.4	0.679
1404.58	0.636
1414.76	0.569
1424.94	0.458
1435.12	0.302
1445.29	0.077
1455.47	0.069
1465.65	0.271
1475.83	0.424
1486.01	0.521
1496.19	0.604
1506.36	0.676
1516.54	0.722
1526.72	0.757
1536.9	0.785
1547.08	0.802
1557.25	0.819
1567.43	0.828
1577.61	0.835
1587.79	0.841
1597.97	0.842
1608.15	0.847
1618.32	0.854
1628.5	0.855
1638.68	0.857
1648.86	0.863
1659.04	0.866
1669.21	0.867
1679.39	0.863
1689.57	0.86
1699.75	0.858
1709.93	0.856
1720.1	0.859
1730.28	0.853
1740.46	0.852
1750.64	0.855
1760.82	0.86
1771	0.864
1781.17	0.869
1791.35	0.867
1801.53	0.866
1811.71	0.865
1821.89	0.867
1832.06	0.868
1842.24	0.865
1852.42	0.86
1862.6	0.851
1872.78	0.849
1882.95	0.853
1893.13	0.856
1903.31	0.856
1913.49	0.856
1923.67	0.856
1933.85	0.861
1944.02	0.867
1954.2	0.865
1964.38	0.864
1974.56	0.862
1984.74	0.86
1994.91	0.858
2005.09	0.8675
2015.27	0.8575
2025.45	0.854
2035.63	0.8565
2045.81	0.853
2055.98	0.8545
2066.16	0.86
2076.34	0.8665
2086.52	0.8665
2096.7	0.8655
2106.87	0.869
2117.05	0.87
2127.23	0.8644
2137.41	0.8579
2147.59	0.8465
2157.76	0.8178
2167.94	0.7829
2178.12	0.8078
2188.3	0.8195
2198.48	0.8255
2208.66	0.8326
2218.83	0.837
2229.01	0.838
2239.19	0.8339
2249.37	0.831
2259.55	0.8284
2269.72	0.834
2279.9	0.8421
2290.08	0.8476
2300.26	0.8453
2310.44	0.8394
2320.61	0.8108
2330.79	0.7527
2340.97	0.7602
2351.15	0.8225
2361.33	0.8432
2371.51	0.85
2381.68	0.848
2391.86	0.847
2402.04	0.848
2412.22	0.8526
2422.4	0.8546
2432.57	0.858
2442.75	0.8586
2452.93	0.8542
2463.11	0.8429
2473.29	0.8229
2483.47	0.8342
2493.64	0.8476
2503.82	0.853
2514	0.8566
2524.18	0.8527
2534.36	0.852
2544.53	0.8437
2554.71	0.8362
2564.89	0.8121
2575.07	0.7569
2585.25	0.6817
2595.42	0.7512
2605.6	0.7789
2615.78	0.7817
2625.96	0.7917
2636.14	0.8017
2646.32	0.8107
2656.49	0.8163
2666.67	0.8213
2676.85	0.825
2687.03	0.822
2697.21	0.8173
2707.38	0.803
2717.56	0.7846
2727.74	0.7302
2737.92	0.7284
2748.1	0.7142
2758.27	0.6748
2768.45	0.6623
2778.63	0.6321
2788.81	0.5427
2798.99	0.4599
2809.17	0.4191
2819.34	0.3315
2829.52	0.1889
2839.7	0.0461
2849.88	0.0013
2860.06	0.001
2870.23	0.001
2880.41	0.001
2890.59	0.001
2900.77	0.001
2910.95	0.001
2921.13	0.001
2931.3	0.001
2941.48	0.001
2951.66	0.001
2961.84	0.001
2972.02	0.001
2982.19	0.0027
2992.37	0.0184
3002.55	0.1005
3012.73	0.2039
3022.91	0.3617
3033.08	0.462
3043.26	0.5568
3053.44	0.6316
3063.62	0.6989
3073.8	0.7371
3083.98	0.7639
3094.15	0.7871
3104.33	0.8003
3114.51	0.8091
3124.69	0.812
3134.87	0.8168
3145.04	0.816
3155.22	0.814
3165.4	0.812
3175.58	0.8102
3185.76	0.809
3195.93	0.81
3206.11	0.812
3216.29	0.813
3226.47	0.8198
3236.65	0.8274
3246.83	0.8358
3257	0.8408
3267.18	0.8448
3277.36	0.8478
3287.54	0.8518
3297.72	0.853
3307.89	0.853
3318.07	0.854
3328.25	0.854
3338.43	0.855
3348.61	0.856
3358.79	0.8558
3368.96	0.855
3379.14	0.856
3389.32	0.857
3399.5	0.8552
3409.68	0.853
3419.85	0.8513
3430.03	0.8473
3440.21	0.843
3450.39	0.8364
3460.57	0.8293
3470.74	0.8133
3480.92	0.8014
3491.1	0.801
3501.28	0.8067
3511.46	0.81
3521.64	0.8199
3531.81	0.822
3541.99	0.8268
3552.17	0.8319
3562.35	0.8349
3572.53	0.8399
3582.7	0.844
3592.88	0.844
3603.06	0.842
3613.24	0.841
3623.42	0.844
3633.59	0.846
3643.77	0.8421
3653.95	0.8411
3664.13	0.839
3674.31	0.8351
3684.49	0.8311
3694.66	0.8203
3704.84	0.8161
3715.02	0.8101
3725.2	0.808
3735.38	0.811
3745.55	0.809
3755.73	0.7982
3765.91	0.796
3776.09	0.7941
3786.27	0.7881
3796.45	0.7851
3806.62	0.7811
3816.8	0.779
3826.98	0.7691
3837.16	0.769
3847.34	0.7829
3857.51	0.7959
3867.69	0.8049
3877.87	0.807
3888.05	0.806
3898.23	0.8
3908.4	0.801
3918.58	0.807
3928.76	0.813
3938.94	0.821
3949.12	0.827
3959.3	0.83
3969.47	0.832
3979.65	0.833
3989.83	0.833
