Infrared Spectrum: Propane, 1-bromo-3-chloro-2-methyl-
Formula: C 4 H 8 Br Cl
CAS: 6974-77-2
State: gas
Origin: Sadtler Research Labs Under US-EPA Contract
1/CM	ABSORBANCE
450	0.00822969
462	0.00890426
474	0.0101634
486	0.0171789
498	0.0215861
510	0.0137611
522	0.00260832
534	0.00364265
546	0.000134913
558	0.00247341
570	0.0044971
582	0.00368762
594	0.00742021
606	0.0180783
618	0.0409686
630	0.0657926
642	0.0660624
654	0.0843206
666	0.121961
678	0.0290063
690	0.0407887
702	0.112203
714	0.103433
726	0.083691
738	0.17089
750	0.177725
762	0.103658
774	0.0298607
786	0.020192
798	0.0373259
810	0.0786992
822	0.0703796
834	0.0383153
846	0.0568433
858	0.0720435
870	0.0354371
882	0.0228902
894	0.0390348
906	0.0268027
918	0.0146156
930	0.0383153
942	0.0978569
954	0.101634
966	0.0352573
978	0.0105232
990	0.00634091
1002	0.00305803
1014	0.00364265
1026	0.00553143
1038	0.00737524
1050	0.0119173
1062	0.0127718
1074	0.009309
1086	0.00809478
1098	0.0103883
1110	0.0147505
1122	0.0148854
1134	0.0152901
1146	0.0194275
1158	0.020102
1170	0.0133564
1182	0.0130416
1194	0.0173588
1206	0.024869
1218	0.0628245
1230	0.20165
1242	0.240685
1254	0.192251
1266	0.17858
1278	0.129561
1290	0.0684009
1302	0.0513119
1314	0.112383
1326	0.123715
1338	0.0725832
1350	0.0555392
1362	0.0244193
1374	0.0548646
1386	0.102129
1398	0.0600813
1410	0.0181233
1422	0.0287814
1434	0.134104
1446	0.194814
1458	0.150068
1470	0.112652
1482	0.0442515
1494	0.0127268
1506	0.00733027
1518	0.00562137
1530	0.00454207
1542	0.00553143
1554	0.00427225
1566	0.00319294
1578	0.00328288
1590	0.00332785
1602	0.00395745
1614	0.00454207
1626	0.00472195
1638	0.00440716
1650	0.00413733
1662	0.00400242
1674	0.00431722
1686	0.00364265
1698	0.00346277
1710	0.00238346
1722	0.00215861
1734	0.00269826
1746	0.0034178
1758	0.0048119
1770	0.00580126
1782	0.00377756
1794	0.00260832
1806	0.00224855
1818	0.00130416
1830	0.00125919
1842	0.00116925
1854	0.00103433
1866	0.00116925
1878	0.00134913
1890	0.000944391
1902	0.00130416
1914	0.0010793
1926	0.000674565
1938	0.00157398
1950	0.00103433
1962	0.000404739
1974	0.000539652
1986	0
1998	0.000404739
2010	0.000359768
2022	0.000674565
2034	0.0013941
2046	0.00197872
2058	0.00233849
2070	0.00301306
2082	0.00206867
2094	0.000764507
2106	0.000944391
2118	0.000944391
2130	0.00134913
2142	0.00161896
2154	0.00206867
2166	0.00188878
2178	0.00125919
2190	0.00184381
2202	0.00247341
2214	0.00130416
2226	0.0013941
2238	0.00224855
2250	0.00224855
2262	0.00337282
2274	0.00404739
2286	0.00427225
2298	0.00409236
2310	0.00314797
2322	0.003103
2334	0.00188878
2346	0.00224855
2358	0.00211364
2370	0.00296809
2382	0.00287814
2394	0.00265329
2406	0.00229352
2418	0.00193375
2430	0.00301306
2442	0.00260832
2454	0.00287814
2466	0.00337282
2478	0.00224855
2490	0.00220358
2502	0.00319294
2514	0.00206867
2526	0.00202369
2538	0.00233849
2550	0.00229352
2562	0.00274323
2574	0.0017089
2586	0.00125919
2598	0.0013941
2610	0.00103433
2622	0.00130416
2634	0.000809478
2646	0.000764507
2658	0.0013941
2670	0.00476693
2682	0.00431722
2694	0.00391248
2706	0.0034178
2718	0.00485687
2730	0.00400242
2742	0.00535155
2754	0.00526161
2766	0.00539652
2778	0.00359768
2790	0.00413733
2802	0.00611606
2814	0.00751016
2826	0.0112877
2838	0.0160996
2850	0.0214512
2862	0.0376407
2874	0.0691204
2886	0.109414
2898	0.124525
2910	0.0903917
2922	0.0714589
2934	0.102084
2946	0.165134
2958	0.260292
2970	0.434015
2982	0.425875
2994	0.238976
3006	0.117824
3018	0.0626446
3030	0.027972
3042	0.0115575
3054	0.00939894
3066	0.00966876
3078	0.009309
3090	0.00849952
3102	0.00813975
3114	0.00827466
3126	0.00733027
3138	0.0086794
3150	0.00710542
3162	0.0076001
3174	0.00818472
3186	0.00800484
3198	0.00683559
3210	0.00553143
3222	0.00368762
3234	0.00319294
3246	0.00566635
3258	0.00476693
3270	0.0041823
3282	0.00494681
3294	0.00454207
3306	0.000134913
3318	0.00463201
3330	0.00422727
3342	0.00580126
3354	0.00346277
3366	0.00296809
3378	0.00404739
3390	0.00368762
3402	0.00584623
3414	0.00454207
3426	0.0034178
3438	0.0041823
3450	0.00571132
3462	0.00539652
3474	0.00476693
3486	0.00427225
3498	0.00611606
3510	0.00445213
3522	0.00602611
3534	0.00607109
3546	0.00611606
3558	0.00616103
3570	0.00670068
3582	0.0104782
3594	0.00908414
3606	0.0112427
3618	0.00836461
3630	0.00800484
3642	0.0106581
3654	0.00908414
3666	0.0119623
3678	0.0116025
3690	0.0115126
3702	0.00912911
3714	0.0115126
3726	0.0149753
3738	0.00845455
3750	0.0167292
3762	0.0129516
3774	0.0151103
3786	0.0135363
3798	0.013896
3810	0.0112877
3822	0.0129516
3834	0.0146156
3846	0.0118274
3858	0.0148854
3870	0.0141209
3882	0.017044
3894	0.0100285
3906	0.0154251
3918	0.0143008
3930	0.0151103
3942	0.0111978
3954	0.00822969
3966	0.0214062
