Infrared Spectrum: 1,3-Hexadiene
Formula: C 6 H 10
CAS: 592-48-3
State: gas
Instrument: HP-GC/MS/IRD
Origin: NIST Mass Spectrometry Data Center
1/CM	ABSORBANCE
550	0.000792
562	0.0001296
574	0.0003222
586	0.0001692
598	0.0002142
610	0.00018
622	0.0004536
634	0.0005778
646	0.000531
658	0.0003672
670	0.0002232
682	0.0001566
694	0.0001062
706	0.0001368
718	9.36e-05
730	0.0001872
742	0.000306
754	0.0004806
766	0.000675
778	0.0008172
790	0.0008262
802	0.000576
814	0.0005778
826	0.0005868
838	0.0007938
850	0.0011412
862	0.0016812
874	0.0027882
886	0.0045018
898	0.0063666
910	0.0065628
922	0.0054756
934	0.004464
946	0.0041796
958	0.0045414
970	0.005409
982	0.006642
994	0.0073692
1006	0.0071226
1018	0.0057456
1030	0.003537
1042	0.001953
1054	0.0012996
1066	0.0010728
1078	0.000945
1090	0.0008496
1102	0.0007362
1114	0.0005418
1126	0.0005094
1138	0.0005328
1150	0.000369
1162	0.00054
1174	0.0007002
1186	0.0006012
1198	0.0003762
1210	0.0003456
1222	0.0004464
1234	0.000342
1246	0.0004068
1258	0.0005778
1270	0.0009306
1282	0.0011502
1294	0.0012042
1306	0.0014616
1318	0.0018378
1330	0.001683
1342	0.0010764
1354	0.000684
1366	0.0005904
1378	0.0007308
1390	0.000936
1402	0.0010116
1414	0.0012078
1426	0.0014472
1438	0.0017748
1450	0.0019962
1462	0.0020718
1474	0.001719
1486	0.0012114
1498	0.0007164
1510	0.0005436
1522	0.0005058
1534	0.0004932
1546	0.0005022
1558	0.0005652
1570	0.0007668
1582	0.001269
1594	0.0021456
1606	0.0024786
1618	0.0019422
1630	0.0016488
1642	0.0023634
1654	0.0025182
1666	0.0014364
1678	0.0004392
1690	0.0002934
1702	0.0002412
1714	0.000279
1726	0.000288
1738	0.0002736
1750	0.0003438
1762	0.0004302
1774	0.000639
1786	0.0012204
1798	0.0020052
1810	0.0020214
1822	0.0010098
1834	0.0006894
1846	0.0005418
1858	0.0003528
1870	0.0002052
1882	0.0002034
1894	0.0001872
1906	0.0002016
1918	0.0001872
1930	0.0001746
1942	0.0001944
1954	0.0001476
1966	0.0001386
1978	0.000117
1990	0.0001494
2002	0.0001674
2014	0.0001872
2026	0.000144
2038	0.0001458
2050	0.000144
2062	0.0001008
2074	0.0001242
2086	0.0001278
2098	0.0001332
2110	0.0001494
2122	0.0001674
2134	0.0001458
2146	9.72e-05
2158	0.0001206
2170	9.36e-05
2182	9.36e-05
2194	0.0001368
2206	0.0001278
2218	0.0001332
2230	0.0001368
2242	0.0001656
2254	0.0001296
2266	0.0001386
2278	9.9e-05
2290	0.0001314
2302	0.0001116
2314	0.0001368
2326	0.0001152
2338	9.54e-05
2350	0.0001512
2362	0.0001188
2374	0.0001566
2386	0.0001638
2398	0.0001584
2410	0.0001908
2422	0.0001746
2434	0.0001296
2446	0.0001386
2458	0.0001638
2470	0.0001278
2482	0.0001242
2494	0.000144
2506	0.0001062
2518	9.18e-05
2530	0.000117
2542	0.000126
2554	0.0002016
2566	0.0001152
2578	0.000162
2590	0.0001494
2602	0.0001134
2614	0.0001242
2626	0.0001386
2638	9e-05
2650	9.54e-05
2662	0.0001134
2674	0.0001116
2686	0.0001638
2698	0.0001638
2710	0.0002322
2722	0.0002466
2734	0.0003222
2746	0.0003546
2758	0.0004446
2770	0.0004104
2782	0.000477
2794	0.0005436
2806	0.0006606
2818	0.0010404
2830	0.0015498
2842	0.002493
2854	0.003663
2866	0.004725
2878	0.00648
2890	0.0077976
2902	0.0083574
2914	0.0082008
2926	0.008667
2938	0.0109458
2950	0.0123174
2962	0.0149832
2974	0.018
2986	0.0157176
2998	0.0108504
3010	0.0094266
3022	0.0079038
3034	0.0057978
3046	0.0044244
3058	0.0036054
3070	0.0031284
3082	0.0039348
3094	0.0040374
3106	0.0031392
3118	0.0015642
3130	0.0010116
3142	0.0007614
3154	0.0006444
3166	0.0004698
3178	0.0004158
3190	0.0002934
3202	0.000234
3214	0.0002538
3226	0.0002286
3238	0.0001476
3250	0.0002142
3262	0.0002502
3274	0.000144
3286	0.0001368
3298	0.0001332
3310	0.0001908
3322	9.36e-05
3334	0.0001242
3346	0.0002052
3358	0.0001854
3370	0.0001818
3382	0.0002052
3394	0.0001422
3406	0.0001818
3418	0.0001368
3430	0.000234
3442	0.000216
3454	0.0001782
3466	0.000162
3478	0.000189
3490	0.000189
3502	0.000216
3514	0.0002052
3526	0.0002052
3538	0.0001728
3550	0.0002862
3562	0.0001764
3574	0.0002358
3586	0.0002376
3598	0.0002862
3610	0.0002304
3622	0.00018
3634	0.0002268
3646	0.0002502
3658	0.000162
3670	0.0001872
3682	0.0001908
3694	0.0002394
3706	0.000216
3718	0.0002844
3730	0.000234
3742	0.000216
3754	0.0002628
3766	0.0002916
3778	0.0003114
3790	0.0003024
3802	0.0001548
3814	0.0002952
3826	0.0001926
3838	0.000315
