Infrared Spectrum: Acetic acid, chloro-, methyl ester
Formula: C 3 H 5 Cl O 2
CAS: 96-34-4
State: gas
Origin: Sadtler Research Labs Under US-EPA Contract
1/CM	ABSORBANCE
450	0.00118213
462	0.000131348
474	0.00361207
486	0.00288966
498	0.00472853
510	0.00643605
522	0.00774953
534	0.00531959
546	0.0115586
558	0.0168782
570	0.030013
582	0.0380909
594	0.0308668
606	0.0264009
618	0.0189141
630	0.0154991
642	0.018126
654	0.0154991
666	0.0222635
678	0.0336251
690	0.0596977
702	0.0642948
714	0.0550348
726	0.0463002
738	0.0394044
750	0.0387477
762	0.0450524
774	0.0583185
786	0.0850478
798	0.101926
810	0.0771669
822	0.0368431
834	0.0327713
846	0.0320489
858	0.0316549
870	0.0364491
882	0.0321146
894	0.0263353
906	0.0203589
918	0.02095
930	0.0223948
942	0.0183887
954	0.0187828
966	0.0178633
978	0.0212784
990	0.0407836
1002	0.110726
1014	0.21587
1026	0.213638
1038	0.0840627
1050	0.0311295
1062	0.0241024
1074	0.0208187
1086	0.0229202
1098	0.0342818
1110	0.0642292
1122	0.1301
1134	0.201751
1146	0.224671
1158	0.312805
1170	0.450786
1182	0.404815
1194	0.247591
1206	0.201422
1218	0.16077
1230	0.168782
1242	0.226247
1254	0.338287
1266	0.349714
1278	0.34446
1290	0.450918
1302	0.48717
1314	0.348926
1326	0.162543
1338	0.0776923
1350	0.0465629
1362	0.0336251
1374	0.026598
1386	0.0246934
1398	0.0266636
1410	0.0389447
1422	0.069089
1434	0.141922
1446	0.164316
1458	0.0838657
1470	0.0502406
1482	0.0370401
1494	0.0275831
1506	0.0243651
1518	0.0196365
1530	0.0184544
1542	0.0212784
1554	0.021147
1566	0.0202933
1578	0.0180603
1590	0.0151707
1602	0.0141199
1614	0.0124781
1626	0.0122154
1638	0.0126094
1650	0.0114929
1662	0.0121497
1674	0.0130035
1686	0.0172723
1698	0.0215411
1710	0.0303414
1722	0.0512257
1734	0.110398
1746	0.269001
1758	0.512257
1770	0.632506
1782	0.552909
1794	0.344526
1806	0.203392
1818	0.0728325
1830	0.0252188
1842	0.0145796
1854	0.0124124
1866	0.0119527
1878	0.0119527
1890	0.0105078
1902	0.00827492
1914	0.00715847
1926	0.0065674
1938	0.00702712
1950	0.00742116
1962	0.0083406
1974	0.00932571
1986	0.0101795
1998	0.0112303
2010	0.0116243
2022	0.0125437
2034	0.0130035
2046	0.0129378
2058	0.0105735
2070	0.0098511
2082	0.00880032
2094	0.00873464
2106	0.00820925
2118	0.00814358
2130	0.00755251
2142	0.00748684
2154	0.00774953
2166	0.00702712
2178	0.00676442
2190	0.00571364
2202	0.00466285
2214	0.00400611
2226	0.00334937
2238	0.0035464
2250	0.0035464
2262	0.00348072
2274	0.00341505
2286	0.00380909
2298	0.00426881
2310	0.00407179
2322	0.00308668
2334	0.003021
2346	0.00308668
2358	0.00249561
2370	0.00242994
2382	0.00308668
2394	0.00275831
2406	0.00269263
2418	0.00262696
2430	0.003021
2442	0.003021
2454	0.00341505
2466	0.00282398
2478	0.00282398
2490	0.00282398
2502	0.00275831
2514	0.00308668
2526	0.00262696
2538	0.00288966
2550	0.00249561
2562	0.00242994
2574	0.00190455
2586	0.00229859
2598	0.00275831
2610	0.00269263
2622	0.00210157
2634	0.00216724
2646	0.00144483
2658	0.00190455
2670	0.00190455
2682	0.0017732
2694	0.00190455
2706	0.0017732
2718	0.00105078
2730	0.00111646
2742	0.00098511
2754	0.00098511
2766	0.00105078
2778	0.00105078
2790	0.00105078
2802	0.0017732
2814	0.00275831
2826	0.00485988
2838	0.00991677
2850	0.0231172
2862	0.0249561
2874	0.0116243
2886	0.0103765
2898	0.015105
2910	0.0227889
2922	0.0230516
2934	0.0238397
2946	0.0411776
2958	0.132267
2970	0.146322
2982	0.0756564
2994	0.0464315
3006	0.0489271
3018	0.0466285
3030	0.0433448
3042	0.0336251
3054	0.0230516
3066	0.0140542
3078	0.0105735
3090	0.00880032
3102	0.0080779
3114	0.00669875
3126	0.00485988
3138	0.00380909
3150	0.00236426
3162	0.00183887
3174	0.00170752
3186	0.00131348
3198	0.00137915
3210	0.00144483
3222	0.000394044
3234	0.000394044
3246	0.000394044
3258	0.000394044
3270	0.000394044
3282	0.000459718
3294	0.000394044
3306	0.000394044
3318	0.000394044
3330	0.000394044
3342	0.000459718
3354	0.000459718
3366	0.000525392
3378	0.000525392
3390	0.000459718
3402	0.000197022
3414	0.000459718
3426	0.000525392
3438	0.000525392
3450	0.000525392
3462	0.00098511
3474	0.000919436
3486	0.00256129
3498	0.00407179
3510	0.00591066
3522	0.00591066
3534	0.0050569
3546	0.00400611
3558	0.00380909
3570	0.00492555
3582	0.0047942
3594	0.00315235
3606	0.000591066
3618	0.000722414
3630	0.0017732
3642	0.00065674
3654	0.000722414
3666	0.00105078
3678	0.00170752
3690	0.00124781
3702	0.00124781
3714	0.00170752
3726	0.00170752
3738	0.00131348
3750	0.00216724
3762	0.000722414
3774	0.00131348
3786	0.00210157
3798	0.00190455
3810	0.0017732
3822	0.00229859
3834	0.00137915
3846	0.00183887
3858	0.00190455
3870	0.00183887
3882	0.00131348
3894	0.00124781
3906	0.00197022
3918	0.00236426
3930	0.00183887
3942	0.000853762
3954	0
3966	6.5674e-05
