Infrared Spectrum: ACETIC ACID, CHLORO-, METHYL ESTER
Formula: C3 H5 Cl O2
CAS: 96-34-4
State: SOLUTION (10% IN CCl4 FOR 3800-1300, 10% IN CS2 FOR 1300-650, 10% IN CCl4 FOR 650-230 CM^-^1) VERSUS SOLVENT
Class: COBLENTZ III
Instrument: PERKIN-ELMER 521 (GRATING)
Instrument parameters: FILTERS AT 3150, 2500, 2000, 1150, 700, 410; GRATING CHANGES AT 2000, 630 CM^-^1
Sampling: TRANSMISSION
Path length: 0.011, 0.010, AND 0.010 CM (CsBr CELL)
Resolution: 4
Origin: DOW CORNING CORP.
1/CM	TRANSMITTANCE
215.772	0.788
225.63	0.776
235.487	0.759
245.345	0.748
255.202	0.733
265.06	0.725
274.918	0.719
284.775	0.711
294.633	0.703
304.49	0.695
314.348	0.697
324.206	0.745
334.063	0.782
343.921	0.796
353.778	0.794
363.636	0.792
373.494	0.787
383.351	0.763
393.209	0.677
403.067	0.728
412.924	0.716
422.782	0.719
432.639	0.768
442.497	0.771
452.355	0.775
462.212	0.776
472.07	0.776
481.927	0.779
491.785	0.8
501.643	0.815
511.5	0.83
521.358	0.84
531.215	0.838
541.073	0.828
550.931	0.81
560.788	0.732
570.646	0.668
580.503	0.696
590.361	0.727
600.219	0.776
610.076	0.787
619.934	0.802
629.791	0.819
639.649	0.812
649.507	0.804
659.364	0.792
669.222	0.778
679.079	0.745
688.937	0.676
698.795	0.672
708.652	0.673
718.51	0.735
728.368	0.795
738.225	0.818
748.083	0.807
757.94	0.791
767.798	0.75
777.656	0.627
787.513	0.469
797.371	0.298
807.228	0.635
817.086	0.798
826.944	0.832
836.801	0.828
846.659	0.816
856.516	0.791
866.374	0.786
876.232	0.748
886.089	0.668
895.947	0.806
905.804	0.818
915.662	0.792
925.52	0.671
935.377	0.677
945.235	0.823
955.092	0.839
964.95	0.831
974.808	0.803
984.665	0.758
994.523	0.62
1004.38	0.288
1014.24	0.175
1024.1	0.417
1033.95	0.675
1043.81	0.709
1053.67	0.697
1063.53	0.675
1073.38	0.656
1083.24	0.687
1093.1	0.693
1102.96	0.68
1112.81	0.637
1122.67	0.541
1132.53	0.395
1142.39	0.244
1152.24	0.207
1162.1	0.11
1171.96	0.045
1181.82	0.102
1191.68	0.076
1201.53	0.09
1211.39	0.216
1221.25	0.381
1231.11	0.418
1240.96	0.366
1250.82	0.279
1260.68	0.192
1270.54	0.192
1280.39	0.128
1290.25	0.07
1300.11	0.058
1309.97	0.038
1319.82	0.108
1329.68	0.375
1339.54	0.553
1349.4	0.629
1359.25	0.693
1369.11	0.696
1378.97	0.697
1388.83	0.696
1398.68	0.679
1408.54	0.536
1418.4	0.312
1428.26	0.465
1438.12	0.085
1447.97	0.306
1457.83	0.429
1467.69	0.58
1477.55	0.695
1487.4	0.735
1497.26	0.743
1507.12	0.767
1516.98	0.776
1526.83	0.778
1536.69	0.783
1546.55	0.778
1556.41	0.771
1566.26	0.766
1576.12	0.772
1585.98	0.772
1595.84	0.768
1605.69	0.768
1615.55	0.775
1625.41	0.779
1635.27	0.779
1645.12	0.778
1654.98	0.772
1664.84	0.762
1674.7	0.74
1684.56	0.705
1694.41	0.648
1704.27	0.541
1714.13	0.425
1723.99	0.279
1733.84	0.078
1743.7	0.01
1753.56	0.01
1763.42	0.016
1773.27	0.02
1783.13	0.096
1792.99	0.421
1802.85	0.594
1812.7	0.685
1822.56	0.744
1832.42	0.774
1842.28	0.796
1852.13	0.802
1861.99	0.806
1871.85	0.804
1881.71	0.807
1891.57	0.823
1901.42	0.836
1911.28	0.838
1921.14	0.839
1931	0.84
1940.85	0.836
1950.71	0.834
1960.57	0.828
1970.43	0.824
1980.28	0.823
1990.14	0.823
2000	0.836
2009.86	0.846
2019.71	0.847
2029.57	0.847
2039.43	0.848
2049.29	0.846
2059.14	0.846
2069	0.847
2078.86	0.848
2088.72	0.8511
2098.57	0.8541
2108.43	0.859
2118.29	0.859
2128.15	0.8589
2138.01	0.856
2147.86	0.858
2157.72	0.859
2167.58	0.8604
2177.44	0.862
2187.29	0.8622
2197.15	0.867
2207.01	0.8712
2216.87	0.874
2226.72	0.8742
2236.58	0.874
2246.44	0.875
2256.3	0.874
2266.15	0.874
2276.01	0.874
2285.87	0.871
2295.73	0.871
2305.58	0.871
2315.44	0.874
2325.3	0.874
2335.16	0.874
2345.01	0.8746
2354.87	0.8744
2364.73	0.8746
2374.59	0.8676
2384.45	0.8612
2394.3	0.859
2404.16	0.859
2414.02	0.859
2423.88	0.8571
2433.73	0.855
2443.59	0.854
2453.45	0.855
2463.31	0.854
2473.16	0.8515
2483.02	0.8435
2492.88	0.843
2502.74	0.8434
2512.59	0.843
2522.45	0.8424
2532.31	0.84
2542.17	0.84
2552.02	0.84
2561.88	0.838
2571.74	0.8367
2581.6	0.836
2591.46	0.838
2601.31	0.839
2611.17	0.839
2621.03	0.8397
2630.89	0.839
2640.74	0.84
2650.6	0.839
2660.46	0.8393
2670.32	0.839
2680.17	0.839
2690.03	0.84
2699.89	0.8428
2709.75	0.842
2719.6	0.843
2729.46	0.844
2739.32	0.843
2749.18	0.842
2759.03	0.839
2768.89	0.835
2778.75	0.8311
2788.61	0.8221
2798.46	0.8182
2808.32	0.811
2818.18	0.8042
2828.04	0.7885
2837.9	0.7381
2847.75	0.7059
2857.61	0.7668
2867.47	0.766
2877.33	0.7542
2887.18	0.7251
2897.04	0.715
2906.9	0.715
2916.76	0.715
2926.61	0.6888
2936.47	0.6469
2946.33	0.4973
2956.19	0.2284
2966.04	0.526
2975.9	0.6372
2985.76	0.6368
2995.62	0.5823
3005.47	0.5353
3015.33	0.5932
3025.19	0.6171
3035.05	0.6401
3044.9	0.708
3054.76	0.7368
3064.62	0.756
3074.48	0.7622
3084.34	0.766
3094.19	0.7686
3104.05	0.7742
3113.91	0.775
3123.77	0.7748
3133.62	0.7735
3143.48	0.771
3153.34	0.771
3163.2	0.771
3173.05	0.77
3182.91	0.77
3192.77	0.77
3202.63	0.771
3212.48	0.77
3222.34	0.77
3232.2	0.77
3242.06	0.77
3251.91	0.77
3261.77	0.7692
3271.63	0.768
3281.49	0.768
3291.35	0.768
3301.2	0.7689
3311.06	0.7729
3320.92	0.7755
3330.78	0.78
3340.63	0.7875
3350.49	0.792
3360.35	0.795
3370.21	0.797
3380.06	0.7985
3389.92	0.8011
3399.78	0.806
3409.64	0.806
3419.49	0.804
3429.35	0.803
3439.21	0.802
3449.07	0.798
3458.92	0.795
3468.78	0.794
3478.64	0.794
3488.5	0.794
3498.35	0.7957
3508.21	0.798
3518.07	0.8014
3527.93	0.8114
3537.79	0.8274
3547.64	0.831
3557.5	0.835
3567.36	0.836
3577.22	0.8398
3587.07	0.8503
3596.93	0.859
3606.79	0.862
3616.65	0.863
3626.5	0.866
3636.36	0.867
3646.22	0.867
3656.08	0.868
3665.93	0.867
3675.79	0.868
3685.65	0.8767
3695.51	0.8819
3705.36	0.8899
3715.22	0.891
3725.08	0.889
3734.94	0.886
3744.8	0.8898
3754.65	0.894
3764.51	0.898
3774.37	0.899
3784.23	0.901
