Infrared Spectrum: Isopropneylcyclopropane
Formula: C 6 H 10
CAS: 4663-22-3
State: gas
Instrument: HP-GC/MS/IRD
Origin: NIST Mass Spectrometry Data Center
1/CM	ABSORBANCE
550	0.0014314
562	0.0007208
574	0.0001496
586	0.0002125
598	0.00017
610	5.27e-05
622	0.0001037
634	0.0001377
646	0.0001241
658	5.27e-05
670	0.0002329
682	0.0003842
694	0.0004029
706	0.0003859
718	0.0003043
730	0.0002839
742	0.0002414
754	0.0003383
766	0.0004556
778	0.0007582
790	0.0012342
802	0.0021148
814	0.0033728
826	0.0031042
838	0.0031263
850	0.0041701
862	0.0074647
874	0.0132906
886	0.0169813
898	0.0140777
910	0.0087703
922	0.0042364
934	0.0025024
946	0.0028084
958	0.0033422
970	0.0033575
982	0.0022117
994	0.0020672
1006	0.0035173
1018	0.0044914
1030	0.0043622
1042	0.0030379
1054	0.0020791
1066	0.0017085
1078	0.001564
1090	0.0017748
1102	0.0016235
1114	0.0009571
1126	0.0005219
1138	0.0004981
1150	0.000527
1162	0.0006596
1174	0.000935
1186	0.0007837
1198	0.0006953
1210	0.0008568
1222	0.0021828
1234	0.0034391
1246	0.0035989
1258	0.0022134
1270	0.0012104
1282	0.0014195
1294	0.0014552
1306	0.001207
1318	0.000629
1330	0.0006035
1342	0.0008075
1354	0.0014365
1366	0.0028271
1378	0.0042347
1390	0.0045509
1402	0.0034714
1414	0.0031212
1426	0.0038692
1438	0.0049266
1450	0.005729
1462	0.0049742
1474	0.0036431
1486	0.0019074
1498	0.001054
1510	0.0008177
1522	0.0007208
1534	0.0007157
1546	0.0007684
1558	0.0008908
1570	0.00102
1582	0.0012189
1594	0.0015487
1606	0.0023494
1618	0.0040171
1630	0.0064039
1642	0.0075395
1654	0.00629
1666	0.0034204
1678	0.0013804
1690	0.0007395
1702	0.0006052
1714	0.0005355
1726	0.0004641
1738	0.000561
1750	0.0007548
1762	0.000969
1774	0.0010744
1786	0.0009656
1798	0.0007565
1810	0.0005151
1822	0.0004522
1834	0.0004437
1846	0.0004658
1858	0.0004097
1870	0.0003519
1882	0.0003757
1894	0.0004811
1906	0.0006817
1918	0.0006715
1930	0.0005066
1942	0.0003417
1954	0.0002482
1966	0.0002125
1978	0.000221
1990	0.0002006
2002	0.0001785
2014	0.0001802
2026	0.0002312
2038	0.0003893
2050	0.0004964
2062	0.000527
2074	0.0004913
2086	0.0004012
2098	0.0003485
2110	0.0002907
2122	0.0002193
2134	0.0001632
2146	0.0001105
2158	0.0001139
2170	0.0001037
2182	7.99e-05
2194	0.0001156
2206	0.0001156
2218	7.99e-05
2230	4.93e-05
2242	6.63e-05
2254	0.000119
2266	0.0001241
2278	8.84e-05
2290	5.61e-05
2302	2.38e-05
2314	1.19e-05
2326	5.61e-05
2338	7.65e-05
2350	7.31e-05
2362	3.23e-05
2374	4.42e-05
2386	5.27e-05
2398	6.97e-05
2410	8.67e-05
2422	7.48e-05
2434	6.8e-05
2446	9.52e-05
2458	0.0001632
2470	0.0002091
2482	0.0001785
2494	0.0001445
2506	6.97e-05
2518	4.08e-05
2530	4.08e-05
2542	2.89e-05
2554	5.44e-05
2566	2.89e-05
2578	3.23e-05
2590	4.59e-05
2602	7.82e-05
2614	7.48e-05
2626	6.12e-05
2638	6.46e-05
2650	2.21e-05
2662	6.29e-05
2674	1.19e-05
2686	4.76e-05
2698	9.01e-05
2710	0.0001377
2722	0.000255
2734	0.000306
2746	0.0003128
2758	0.0003536
2770	0.0002992
2782	0.000357
2794	0.0004981
2806	0.0006171
2818	0.0008449
2830	0.0011237
2842	0.0016524
2854	0.0025602
2866	0.0033405
2878	0.0039644
2890	0.0044115
2902	0.0052275
2914	0.0066096
2926	0.0077469
2938	0.0084337
2950	0.008517
2962	0.0092633
2974	0.0115413
2986	0.0134742
2998	0.0148172
3010	0.0155006
3022	0.0143735
3034	0.0105689
3046	0.0064209
3058	0.0056712
3070	0.0099161
3082	0.0149838
3094	0.0145945
3106	0.0091256
3118	0.0030736
3130	0.0013226
3142	0.0007395
3154	0.0005304
3166	0.0003162
3178	0.000221
3190	0.0002346
3202	0.0001853
3214	0.0001275
3226	0.0001785
3238	0.0001768
3250	0.0001241
3262	9.69e-05
3274	9.01e-05
3286	0.0001462
3298	0.0001054
3310	0.0001411
3322	0.0001275
3334	0.0001904
3346	0.0002023
3358	0.0001496
3370	0.000153
3382	0.0001241
3394	0.0001428
3406	0.0001479
3418	9.69e-05
3430	0.0001054
3442	0.0001054
3454	0.0001564
3466	0.0001564
3478	0.0002601
3490	0.0001785
3502	0.0001088
3514	0.0001462
3526	8.5e-05
3538	0.0001156
3550	0.0001241
3562	0.0001717
3574	0.0001054
3586	0.0001649
3598	9.01e-05
3610	0.0001666
3622	0.0001496
3634	8.67e-05
3646	0.0001734
3658	0.0001292
3670	0.0001394
3682	8.84e-05
3694	8.67e-05
3706	0.0001054
3718	8.67e-05
3730	0.0002057
3742	0.0001989
3754	0.0002006
3766	0.0001071
3778	0.0001989
3790	0.00017
3802	0.0002159
3814	0.0002822
3826	0.0002754
3838	0.000221
