Infrared Spectrum: Butanal, 3-methyl-
Formula: C 5 H 10 O
CAS: 590-86-3
State: gas
Origin: Sadtler Research Labs Under US-EPA Contract
1/CM	ABSORBANCE
450	0.0705799
462	0.0146314
474	0.0133013
486	0.0158784
498	0.0207001
510	0.0318399
522	0.041234
534	0.0403195
546	0.0209495
558	0.0141326
570	0.01247
582	0.0149639
594	0.0121374
606	0.0130519
618	0.0123868
630	0.000748197
642	0.0127193
654	0.0148808
666	0.0272676
678	0.0332532
690	0.0256881
702	0.0158784
714	0.0123037
726	0.00989283
738	0.0119712
750	0.0107242
762	0.00956029
774	0.0108073
786	0.0083133
798	0.0080639
810	0.0080639
822	0.00723257
834	0.00947716
846	0.0107242
858	0.0121374
870	0.0167097
882	0.0269351
894	0.0390725
906	0.0414002
918	0.0309255
930	0.0305098
942	0.0255218
954	0.0207832
966	0.0251893
978	0.0382412
990	0.0501292
1002	0.0666727
1014	0.0700811
1026	0.0507111
1038	0.0311749
1050	0.0251893
1062	0.0239423
1074	0.0248568
1086	0.0283484
1098	0.0305929
1110	0.0364123
1122	0.0502123
1134	0.0655919
1146	0.0690835
1158	0.0720763
1170	0.0718269
1182	0.0561148
1194	0.0314243
1206	0.028764
1218	0.0345002
1230	0.0324219
1242	0.0242748
1254	0.0228616
1266	0.0271845
1278	0.0340845
1290	0.0346665
1302	0.0281821
1314	0.0289303
1326	0.0436448
1338	0.0734896
1350	0.0860427
1362	0.101422
1374	0.117301
1386	0.132431
1398	0.106244
1410	0.0816366
1422	0.0690835
1434	0.0559485
1446	0.0640124
1458	0.086874
1470	0.116552
1482	0.0803065
1494	0.0421484
1506	0.0129687
1518	0.00540365
1530	0.00382412
1542	0.00116386
1554	0.00349159
1566	0.00423978
1578	0.00482171
1590	0.00556991
1602	0.00623498
1614	0.00723257
1626	0.00673377
1638	0.00947716
1650	0.0123037
1662	0.0221134
1674	0.0308423
1686	0.0443099
1698	0.0653425
1710	0.118714
1722	0.284149
1734	0.714528
1746	0.83133
1758	0.494558
1770	0.168926
1782	0.0999259
1794	0.0679197
1806	0.0433123
1818	0.0249399
1830	0.0153796
1842	0.0118049
1854	0.0113892
1866	0.0110567
1878	0.00980969
1890	0.00723257
1902	0.00656751
1914	0.00490485
1926	0.00482171
1938	0.00532051
1950	0.00515425
1962	0.00548678
1974	0.00523738
1986	0.00523738
1998	0.00548678
2010	0.00556991
2022	0.00532051
2034	0.00498798
2046	0.00390725
2058	0.00349159
2070	0.00532051
2082	0.00324219
2094	0.00332532
2106	0.00457232
2118	0.00507111
2130	0.00540365
2142	0.00465545
2154	0.00523738
2166	0.00523738
2178	0.00598558
2190	0.00598558
2202	0.00532051
2214	0.00465545
2226	0.00432292
2238	0.00482171
2250	0.00523738
2262	0.00490485
2274	0.00540365
2286	0.00448918
2298	0.00307592
2310	0.00249399
2322	0.00141326
2334	0.00274339
2346	0.00515425
2358	0
2370	0.00872896
2382	0.00706631
2394	0.00457232
2406	0.00532051
2418	0.00490485
2430	0.00490485
2442	0.00448918
2454	0.00448918
2466	0.00365785
2478	0.00465545
2490	0.00507111
2502	0.00556991
2514	0.00598558
2526	0.00507111
2538	0.00473858
2550	0.00565304
2562	0.00581931
2574	0.00764824
2586	0.0107242
2598	0.01247
2610	0.0152133
2622	0.0195363
2634	0.0251062
2646	0.0345833
2658	0.0414834
2670	0.0538702
2682	0.0963511
2694	0.180399
2706	0.303269
2718	0.287557
2730	0.192869
2742	0.125115
2754	0.101838
2766	0.0934415
2778	0.0994271
2790	0.126778
2802	0.178237
2814	0.197191
2826	0.170921
2838	0.115056
2850	0.0917788
2862	0.115804
2874	0.233354
2886	0.318399
2898	0.335359
2910	0.298447
2922	0.287723
2934	0.331202
2946	0.415998
2958	0.5811
2970	0.788018
2982	0.552918
2994	0.178653
3006	0.050628
3018	0.0245242
3030	0.0191206
3042	0.0186218
3054	0.0145483
3066	0.0152965
3078	0.0141326
3090	0.0138832
3102	0.0129687
3114	0.0122206
3126	0.0135507
3138	0.0138001
3150	0.01247
3162	0.0136338
3174	0.0122206
3186	0.0135507
3198	0.0132181
3210	0.0113892
3222	0.00864583
3234	0.00706631
3246	0.00590244
3258	0.00565304
3270	0.00282652
3282	0.00274339
3294	0.00365785
3306	0.00581931
3318	0.00581931
3330	0.00606871
3342	0.00540365
3354	0.00656751
3366	0.00598558
3378	0.00673377
3390	0.00681691
3402	0.00739884
3414	0.00623498
3426	0.00739884
3438	0.00997596
3450	0.0151302
3462	0.0197857
3474	0.0192037
3486	0.0130519
3498	0.00789764
3510	0.00498798
3522	0.00631811
3534	0.00382412
3546	0.00515425
3558	0.00332532
3570	0.00764824
3582	0.00889523
3594	0.00590244
3606	0.00440605
3618	0.00423978
3630	0.00532051
3642	0.00482171
3654	0.00590244
3666	0.00332532
3678	0.00390725
3690	0.00374099
3702	0.00299279
3714	0.00423978
3726	0.00257712
3738	0.00249399
3750	0.00407352
3762	0.00241086
3774	0.00249399
3786	0.00365785
3798	0.00490485
3810	0.00473858
3822	0.00407352
3834	0.00249399
3846	0.00490485
3858	0.00540365
3870	0.00507111
3882	0.00407352
3894	0.00590244
3906	0.00482171
3918	0.00116386
3930	0.00382412
3942	0.00490485
3954	0.00324219
3966	0.00540365
