Infrared Spectrum: FORMIC ACID, METHYL ESTER
Formula: C2 H4 O2
CAS: 107-31-3
State: GAS (100 mmHg, N2 ADDED, TOTAL PRESSURE 600 mmHg)
Class: COBLENTZ
Instrument: DOW KBr FOREPRISM-GRATING
Instrument parameters: GRATING CHANGED AT 5.0, 7.5, 15.0 MICRON
Sampling: TRANSMISSION
Path length: 5 CM
Resolution: 2
Origin: DOW CHEMICAL COMPANY
1/CM	TRANSMITTANCE
382.813	0.975
391.251	0.972
399.688	0.967
408.126	0.965
416.563	0.963
425.001	0.96
433.438	0.956
441.876	0.954
450.313	0.957
458.751	0.959
467.188	0.959
475.626	0.959
484.063	0.962
492.501	0.956
500.938	0.953
509.376	0.951
517.813	0.95
526.251	0.947
534.688	0.946
543.126	0.947
551.563	0.947
560.001	0.947
568.438	0.946
576.876	0.948
585.313	0.953
593.751	0.953
602.188	0.957
610.626	0.96
619.063	0.957
627.501	0.959
635.938	0.963
644.376	0.973
652.813	0.983
661.251	0.983
669.688	0.986
678.126	0.994
686.563	0.998
695.001	1.001
703.438	1.005
711.876	1.004
720.313	0.997
728.751	0.979
737.188	0.947
745.626	0.889
754.063	0.7821
762.501	0.676
770.939	0.793
779.376	0.657
787.814	0.661
796.251	0.825
804.689	0.909
813.126	0.951
821.564	0.975
830.001	0.982
838.439	0.982
846.876	0.979
855.314	0.97
863.751	0.959
872.189	0.94
880.626	0.884
889.064	0.795
897.501	0.6311
905.939	0.3902
914.376	0.313
922.814	0.3859
931.251	0.2601
939.689	0.294
948.126	0.5
956.564	0.701
965.001	0.836
973.439	0.895
981.876	0.905
990.314	0.886
998.751	0.849
1007.19	0.806
1015.63	0.798
1024.06	0.829
1032.5	0.83
1040.94	0.844
1049.38	0.746
1057.81	0.702
1066.25	0.743
1074.69	0.798
1083.13	0.829
1091.56	0.811
1100	0.768
1108.44	0.712
1116.88	0.616
1125.31	0.498
1133.75	0.225
1142.19	0.004
1150.63	0
1159.06	0
1167.5	0
1175.94	0
1184.38	0
1192.81	0.001
1201.25	0.001
1209.69	0.001
1218.13	0.001
1226.56	0.008
1235	0.058
1243.44	0.141
1251.88	0.2049
1260.31	0.411
1268.75	0.62
1277.19	0.731
1285.63	0.806
1294.06	0.87
1302.5	0.861
1310.94	0.864
1319.38	0.867
1327.81	0.846
1336.25	0.819
1344.69	0.8
1353.13	0.769
1361.56	0.76
1370	0.798
1378.44	0.795
1386.88	0.803
1395.31	0.811
1403.75	0.813
1412.19	0.793
1420.63	0.6851
1429.06	0.564
1437.5	0.491
1445.94	0.304
1454.38	0.237
1462.81	0.408
1471.25	0.5301
1479.69	0.561
1488.13	0.654
1496.56	0.755
1505	0.79
1513.44	0.816
1521.88	0.816
1530.31	0.826
1538.75	0.82
1547.19	0.82
1555.63	0.835
1564.06	0.829
1572.5	0.833
1580.94	0.865
1589.38	0.877
1597.81	0.883
1606.25	0.896
1614.69	0.909
1623.13	0.908
1631.56	0.918
1640	0.916
1648.44	0.9
1656.88	0.9
1665.31	0.9
1673.75	0.884
1682.19	0.867
1690.63	0.816
1699.06	0.695
1707.5	0.539
1715.94	0.327
1724.38	0.0679
1732.81	0.001
1741.25	0.001
1749.69	0.001
1758.13	0.002
1766.56	0.004
1775	0.008
1783.44	0.132
1791.88	0.411
1800.31	0.655
1808.75	0.801
1817.19	0.839
1825.63	0.836
1834.06	0.845
1842.5	0.845
1850.94	0.846
1859.38	0.874
1867.81	0.902
1876.25	0.918
1884.69	0.927
1893.13	0.924
1901.57	0.918
1910	0.908
1918.44	0.896
1926.88	0.89
1935.32	0.895
1943.75	0.88
1952.19	0.881
1960.63	0.873
1969.07	0.874
1977.5	0.841
1985.94	0.864
1994.38	0.884
2002.82	0.896
2011.25	0.899
2019.69	0.899
2028.13	0.899
2036.57	0.896
2045	0.8901
2053.44	0.8734
2061.88	0.8482
2070.32	0.7962
2078.75	0.7553
2087.19	0.7596
2095.63	0.7221
2104.07	0.7729
2112.5	0.8035
2120.94	0.7974
2129.38	0.7988
2137.82	0.789
2146.25	0.7926
2154.69	0.86
2163.13	0.888
2171.57	0.8899
2180	0.9088
2188.44	0.9153
2196.88	0.9188
2205.32	0.922
2213.75	0.9235
2222.19	0.924
2230.63	0.924
2239.07	0.924
2247.5	0.9226
2255.94	0.921
2264.38	0.9183
2272.82	0.915
2281.25	0.912
2289.69	0.905
2298.13	0.905
2306.57	0.895
2315	0.893
2323.44	0.8899
2331.88	0.8816
2340.32	0.8698
2348.75	0.8593
2357.19	0.8538
2365.63	0.848
2374.07	0.8461
2382.5	0.8707
2390.94	0.886
2399.38	0.8835
2407.82	0.881
2416.25	0.878
2424.69	0.88
2433.13	0.8994
2441.57	0.9159
2450	0.9215
2458.44	0.924
2466.88	0.9259
2475.32	0.928
2483.75	0.928
2492.19	0.9252
2500.63	0.9156
2509.07	0.9121
2517.5	0.908
2525.94	0.906
2534.38	0.911
2542.82	0.9232
2551.25	0.928
2559.69	0.9253
2568.13	0.922
2576.57	0.9212
2585	0.919
2593.44	0.9164
2601.88	0.9157
2610.32	0.916
2618.75	0.918
2627.19	0.9165
2635.63	0.916
2644.07	0.916
2652.5	0.915
2660.94	0.9136
2669.38	0.9128
2677.82	0.909
2686.25	0.9025
2694.69	0.8953
2703.13	0.8898
2711.57	0.8847
2720	0.877
2728.44	0.876
2736.88	0.877
2745.32	0.8878
2753.75	0.8972
2762.19	0.8994
2770.63	0.9002
2779.07	0.903
2787.5	0.902
2795.94	0.8994
2804.38	0.893
2812.82	0.8803
2821.25	0.8599
2829.69	0.8034
2838.13	0.723
2846.57	0.7136
2855	0.7279
2863.44	0.6635
2871.88	0.7141
2880.32	0.6827
2888.75	0.5694
2897.19	0.4383
2905.63	0.2733
2914.07	0.2198
2922.5	0.0903
2930.94	0.0797
2939.38	0.128
2947.82	0.0636
2956.25	0.0755
2964.69	0.1319
2973.13	0.1883
2981.57	0.195
2990	0.3258
2998.44	0.3938
3006.88	0.4565
3015.32	0.2305
3023.75	0.4147
3032.19	0.3875
3040.63	0.4825
3049.07	0.4164
3057.5	0.5485
3065.94	0.6893
3074.38	0.8225
3082.82	0.8336
3091.25	0.8417
3099.69	0.8436
3108.13	0.839
3116.57	0.833
3125	0.848
3133.44	0.8544
3141.88	0.8621
3150.32	0.8927
3158.75	0.912
3167.19	0.9162
3175.63	0.9238
3184.07	0.928
3192.5	0.9292
3200.94	0.931
3209.38	0.932
3217.82	0.934
3226.25	0.935
3234.69	0.934
3243.13	0.931
3251.57	0.928
3260	0.925
3268.44	0.93
3276.88	0.9345
3285.32	0.938
3293.75	0.9419
3302.19	0.9459
3310.63	0.946
3319.07	0.946
3327.5	0.946
3335.94	0.9442
3344.38	0.944
3352.82	0.944
3361.25	0.9464
3369.69	0.947
3378.13	0.948
3386.57	0.948
3395	0.948
3403.44	0.948
3411.88	0.9454
3420.32	0.941
3428.75	0.94
3437.19	0.9354
3445.63	0.932
3454.07	0.9202
3462.5	0.8975
3470.94	0.848
3479.38	0.8014
3487.82	0.8002
3496.25	0.8163
3504.69	0.7584
3513.13	0.9011
3521.57	0.9334
3530	0.9444
3538.44	0.9493
3546.88	0.95
3555.32	0.95
3563.75	0.95
3572.19	0.95
3580.63	0.944
3589.07	0.9466
3597.5	0.9479
3605.94	0.946
3614.38	0.943
3622.82	0.9457
3631.25	0.9224
3639.69	0.9359
3648.13	0.9179
3656.57	0.9261
3665	0.927
3673.44	0.9245
3681.88	0.918
3690.32	0.917
3698.75	0.916
3707.19	0.9245
3715.63	0.925
3724.07	0.931
3732.5	0.932
3740.94	0.9242
3749.38	0.9314
