Infrared Spectrum: Methyl formate
Formula: C 2 H 4 O 2
CAS: 107-31-3
State: gas
Origin: Sadtler Research Labs Under US-EPA Contract
1/CM	ABSORBANCE
450	0.000914342
462	0.00365737
474	0.00323536
486	0.00281336
498	0.00253202
510	0.00274303
522	0.00337603
534	0.000492338
546	0.00147701
558	0.00647073
570	0.00633006
582	0.00414971
594	0.00436071
606	0.00443104
618	0.00492338
630	0.00443104
642	0.0035167
654	0.00274303
666	0.00168802
678	0.00232102
690	0.00211002
702	0.00281336
714	0.0035167
726	0.00457171
738	0.00984676
750	0.0182165
762	0.0154735
774	0.0177945
786	0.0182165
798	0.00815874
810	0.00443104
822	0.00288369
834	0.00253202
846	0.00260236
858	0.00457171
870	0.00808841
882	0.0163175
894	0.031791
906	0.0464908
918	0.0424114
930	0.0504998
942	0.0404421
954	0.0175132
966	0.00907309
978	0.00443104
990	0.00379804
1002	0.00422004
1014	0.00471238
1026	0.00506405
1038	0.00625973
1050	0.00773674
1062	0.0103391
1074	0.0130821
1086	0.0165285
1098	0.0225772
1110	0.0360813
1122	0.0698417
1134	0.16205
1146	0.324873
1158	0.399849
1170	0.513157
1182	0.498246
1194	0.452248
1206	0.347309
1218	0.317628
1230	0.233157
1242	0.115629
1254	0.0700527
1266	0.0310173
1278	0.0137151
1290	0.00759607
1302	0.00618939
1314	0.00717407
1326	0.00829941
1338	0.0109018
1350	0.0107611
1362	0.0113941
1374	0.0104094
1386	0.0110424
1398	0.0118161
1410	0.0137151
1422	0.0229992
1434	0.0304546
1446	0.0468424
1458	0.0404421
1470	0.0246169
1482	0.0189902
1494	0.0129415
1506	0.0124491
1518	0.0113941
1530	0.00998743
1542	0.0125898
1554	0.00921375
1566	0.00773674
1578	0.0066114
1590	0.00471238
1602	0.0033057
1614	0.00225069
1626	0.0030947
1638	0.00358703
1650	0.00443104
1662	0.00365737
1674	0.00794774
1686	0.0144185
1698	0.0287666
1710	0.0555639
1722	0.165988
1734	0.480592
1746	0.564782
1758	0.381492
1770	0.70334
1782	0.234705
1794	0.0610499
1806	0.030103
1818	0.0104798
1830	0.0072444
1842	0.00569705
1854	0.0037277
1866	0.00239136
1878	0.00105501
1890	0.00119568
1902	0.00119568
1914	0.00260236
1926	0.00281336
1938	0.00316503
1950	0.00316503
1962	0.00260236
1974	0.00316503
1986	0.00302436
1998	0.00154735
2010	0.00140668
2022	0.00218035
2034	0.00253202
2046	0.00414971
2058	0.0072444
2070	0.00949509
2082	0.00949509
2094	0.0101281
2106	0.00865108
2118	0.00647073
2130	0.00597839
2142	0.00541572
2154	0.00218035
2166	0.00140668
2178	0.000492338
2190	0.00035167
2202	0.000422004
2214	0.000492338
2226	0.00035167
2238	0.000422004
2250	0.00035167
2262	0.000984676
2274	0.00147701
2286	0.00218035
2298	0.00253202
2310	0.00295403
2322	0.00281336
2334	0.0039387
2346	0.00569705
2358	0.00422004
2370	0.00696307
2382	0.00633006
2394	0.0035167
2406	0.00316503
2418	0.00267269
2430	0.00267269
2442	0.00168802
2454	0.00161768
2466	0.00119568
2478	0.00126601
2490	0.00218035
2502	0.00260236
2514	0.00274303
2526	0.00281336
2538	0.00281336
2550	0.00189902
2562	0.00189902
2574	0.00189902
2586	0.00232102
2598	0.00288369
2610	0.00288369
2622	0.00246169
2634	0.00239136
2646	0.00295403
2658	0.00246169
2670	0.00189902
2682	0.00302436
2694	0.00344637
2706	0.00429037
2718	0.00443104
2730	0.00443104
2742	0.00443104
2754	0.00407937
2766	0.00295403
2778	0.00260236
2790	0.0035167
2802	0.0033057
2814	0.00443104
2826	0.00787741
2838	0.0116754
2850	0.0134338
2862	0.0181462
2874	0.0182165
2886	0.0291886
2898	0.0484601
2910	0.0730067
2922	0.107681
2934	0.0994523
2946	0.129344
2958	0.117739
2970	0.0794071
2982	0.070967
2994	0.0431851
3006	0.0421301
3018	0.0348857
3030	0.032213
3042	0.0323536
3054	0.0258126
3066	0.0151218
3078	0.0101984
3090	0.00942476
3102	0.0100578
3114	0.00942476
3126	0.00780707
3138	0.00668173
3150	0.00429037
3162	0.00358703
3174	0.00260236
3186	0.00140668
3198	0.00260236
3210	0.00203969
3222	0.00161768
3234	0.00112534
3246	0.00239136
3258	0.00211002
3270	0.00161768
3282	0.00161768
3294	0.00147701
3306	0.00161768
3318	0.00161768
3330	0.00126601
3342	0.000914342
3354	0.00189902
3366	0.00168802
3378	0.000422004
3390	0.000422004
3402	0.00112534
3414	0.00161768
3426	0.00133635
3438	0.00133635
3450	0.00281336
3462	0.00513438
3474	0.00766641
3486	0.00829941
3498	0.00942476
3510	0.00879175
3522	0.00400904
3534	0.00211002
3546	0.00260236
3558	0.00358703
3570	0.00260236
3582	0.00302436
3594	0.00253202
3606	0.0035167
3618	0.00260236
3630	0.0037277
3642	0.00478271
3654	0.00464204
3666	0.00499371
3678	0.00450138
3690	0.00450138
3702	0.00513438
3714	0.00633006
3726	0.00576739
3738	0.00471238
3750	0.00541572
3762	0.00717407
3774	0.00604872
3786	0.00555639
3798	0.00576739
3810	0.00597839
3822	0.00647073
3834	0.00576739
3846	0.00583772
3858	0.00696307
3870	0.00731474
3882	0.00625973
3894	0.00583772
3906	0.00731474
3918	0.00647073
3930	0.00625973
3942	0.00625973
3954	0.00618939
3966	0.00633006
