Infrared Spectrum: Ethylamine, 2-methoxy-1-methyl-,
Formula: C4 H11 N O
CAS: 37143-54-7
State: LIQUID (NEAT)
Boiling point: 98 C
Class: COBLENTZ III
Instrument: BAIRD (GRATING)
Instrument parameters: NaCl PRISM
Path length: 0.003 CM
Resolution: 2
Origin: WYANDOTTE CHEMICALS CORP.
1/CM	TRANSMITTANCE
626	0.6903
635	0.7223
644	0.7441
653	0.7597
662	0.7626
671	0.7822
680	0.7817
689	0.7752
698	0.7706
707	0.7587
716	0.7427
725	0.7187
734	0.6894
743	0.6507
752	0.6005
761	0.5372
770	0.4543
779	0.3551
788	0.2395
797	0.1385
806	0.0734
815	0.0456
824	0.0299
833	0.0298
842	0.0484
851	0.0947
860	0.062
869	0.0407
878	0.0485
887	0.0598
896	0.0686
905	0.0988
914	0.1048
923	0.105
932	0.1972
941	0.205
950	0.2731
959	0.2225
968	0.1131
977	0.1441
986	0.1179
995	0.3824
1004	0.5685
1013	0.5781
1022	0.5251
1031	0.5139
1040	0.517
1049	0.5247
1058	0.5012
1067	0.3872
1076	0.2167
1085	0.0918
1094	0.0248
1103	0.0127
1112	0.0128
1121	0.015
1130	0.0206
1139	0.0336
1148	0.0495
1157	0.0238
1166	0.065
1175	0.2082
1184	0.2238
1193	0.0985
1202	0.0607
1211	0.1679
1220	0.3802
1229	0.4536
1238	0.5432
1247	0.5837
1256	0.567
1265	0.542
1274	0.5957
1283	0.6775
1292	0.6683
1301	0.6569
1310	0.5441
1319	0.4775
1328	0.4941
1337	0.4817
1346	0.4361
1355	0.2286
1364	0.3708
1373	0.3227
1382	0.152
1391	0.187
1400	0.4288
1409	0.5625
1418	0.6593
1427	0.6572
1436	0.6224
1445	0.4773
1454	0.2375
1463	0.0629
1472	0.0643
1481	0.1998
1490	0.3775
1499	0.6213
1508	0.6722
1517	0.6857
1526	0.6849
1535	0.6778
1544	0.6615
1553	0.6162
1562	0.5677
1571	0.514
1580	0.3922
1589	0.3265
1598	0.2728
1607	0.2402
1616	0.2667
1625	0.3392
1634	0.411
1643	0.4819
1652	0.5542
1661	0.6198
1670	0.6825
1679	0.7432
1688	0.7833
1697	0.8153
1706	0.8422
1715	0.8631
1724	0.893
1733	0.9055
1742	0.9171
1751	0.9251
1760	0.9321
1769	0.9374
1778	0.9398
1787	0.9411
1796	0.9417
1805	0.9421
1814	0.9425
1823	0.9431
1832	0.9437
1841	0.9438
1850	0.9435
1859	0.9432
1868	0.943
1877	0.9429
1886	0.9428
1895	0.9427
1904	0.9405
1913	0.9353
1922	0.9322
1931	0.932
1940	0.9324
1949	0.9327
1958	0.9326
1967	0.9299
1976	0.9228
1985	0.915
1994	0.9045
2003	0.8916
2012	0.8954
2021	0.8951
2030	0.8869
2039	0.8785
2048	0.8699
2057	0.8667
2066	0.8758
2075	0.8938
2084	0.911
2093	0.9249
2102	0.9345
2111	0.9374
2120	0.9397
2129	0.942
2138	0.9421
2147	0.9385
2156	0.9361
2165	0.9351
2174	0.9353
2183	0.937
2192	0.9404
2201	0.9458
2210	0.9501
2219	0.9493
2228	0.9479
2237	0.9462
2246	0.9445
2255	0.9433
2264	0.9431
2273	0.943
2282	0.944
2291	0.9459
2300	0.9488
2309	0.9484
2318	0.9435
2327	0.937
2336	0.9319
2345	0.931
2354	0.9309
2363	0.9309
2372	0.9322
2381	0.9348
2390	0.9377
2399	0.9394
2408	0.9384
2417	0.9363
2426	0.9332
2435	0.9306
2444	0.9294
2453	0.9309
2462	0.9323
2471	0.9336
2480	0.9339
2489	0.9332
2498	0.9265
2507	0.9168
2516	0.9046
2525	0.8923
2534	0.8801
2543	0.8675
2552	0.8542
2561	0.8401
2570	0.8271
2579	0.8174
2588	0.8133
2597	0.8127
2606	0.8115
2615	0.8093
2624	0.7941
2633	0.785
2642	0.7808
2651	0.7707
2660	0.7446
2669	0.7207
2678	0.7127
2687	0.7099
2696	0.7032
2705	0.6551
2714	0.5876
2723	0.544
2732	0.5248
2741	0.5101
2750	0.4788
2759	0.4381
2768	0.4128
2777	0.3359
2786	0.1854
2795	0.0679
2804	0.0393
2813	0.0285
2822	0.0227
2831	0.0197
2840	0.0178
2849	0.0167
2858	0.0162
2867	0.0163
2876	0.0167
2885	0.0171
2894	0.0178
2903	0.0187
2912	0.0195
2921	0.0206
2930	0.0225
2939	0.0239
2948	0.0224
2957	0.0169
2966	0.0108
2975	0.0051
2984	0.0041
2993	0.0618
3002	0.2084
3011	0.3541
3020	0.499
3029	0.6429
3038	0.7221
3047	0.7584
3056	0.7834
3065	0.7948
3074	0.8005
3083	0.8012
3092	0.8003
3101	0.7989
3110	0.7967
3119	0.7942
3128	0.7904
3137	0.7849
3146	0.7651
3155	0.7401
3164	0.7153
3173	0.6905
3182	0.6757
3191	0.674
3200	0.6718
3209	0.6687
3218	0.663
3227	0.6538
3236	0.6267
3245	0.5888
3254	0.551
3263	0.5135
3272	0.4849
3281	0.4851
3290	0.5108
3299	0.5415
3308	0.5686
3317	0.536
3326	0.4465
3335	0.3764
3344	0.4184
3353	0.5082
3362	0.5974
3371	0.6873
3380	0.7561
3389	0.8138
3398	0.8447
3407	0.8606
3416	0.8687
3425	0.8756
3434	0.8826
3443	0.8892
3452	0.8952
3461	0.9011
3470	0.907
3479	0.9128
3488	0.9181
3497	0.9231
3506	0.9283
3515	0.9333
3524	0.9377
3533	0.9408
3542	0.9439
3551	0.947
3560	0.95
3569	0.9526
3578	0.955
3587	0.9575
3596	0.9598
3605	0.9616
3614	0.9633
3623	0.9651
3632	0.9666
3641	0.9673
3650	0.9678
3659	0.9682
3668	0.9682
3677	0.9682
3686	0.9682
3695	0.9682
3704	0.9681
3713	0.9678
3722	0.9675
3731	0.9672
3740	0.9668
3749	0.9665
3758	0.9662
3767	0.9659
3776	0.9656
3785	0.9652
3794	0.9648
3803	0.9645
3812	0.9641
3821	0.9636
3830	0.9632
3839	0.9627
3848	0.9623
3857	0.9618
3866	0.9614
3875	0.9608
3884	0.96
3893	0.9592
3902	0.9583
3911	0.9574
3920	0.9563
3929	0.955
3938	0.9537
3947	0.9524
3956	0.9511
3965	0.9493
3974	0.9471
3983	0.945
3992	0.9428
