Infrared Spectrum: CROTONIC ACID
Formula: C4 H6 O2
CAS: 3724-65-0
State: SOLID (KBr DISC)
Melting point: 71 C
Boiling point: 183 C
Class: COBLENTZ III
Instrument: PERKIN-ELMER 521 (GRATING)
Instrument parameters: FILTERS AT 3150, 2500, 2000, 1150, 700, 410. GRATING CHANGES: 2000, 630
Resolution: 2
Origin: DOW CORNING CORP.
1/CM	TRANSMITTANCE
243	0.6143
252	0.614
261	0.6604
270	0.7316
279	0.8315
288	0.9013
297	0.9324
306	0.9521
315	0.9695
324	0.9843
333	0.9963
342	1.0002
351	1.0007
360	0.9978
369	0.9825
378	0.9614
387	0.8996
396	0.7548
405	0.8532
414	0.9286
423	0.958
432	0.9643
441	0.9549
450	0.9463
459	0.9411
468	0.9374
477	0.933
486	0.908
495	0.8606
504	0.7836
513	0.5784
522	0.6629
531	0.6655
540	0.6016
549	0.8969
558	0.9564
567	0.9731
576	0.9769
585	0.9773
594	0.9747
603	0.9701
612	0.9702
621	0.9751
630	0.9645
639	0.9481
648	0.928
657	0.9049
666	0.8819
675	0.8371
684	0.713
693	0.5442
702	0.3364
711	0.9266
720	0.9489
729	0.9418
738	0.9316
747	0.9172
756	0.9081
765	0.8962
774	0.8769
783	0.857
792	0.8365
801	0.8167
810	0.8047
819	0.7964
828	0.7911
837	0.6991
846	0.537
855	0.7313
864	0.7087
873	0.6658
882	0.5807
891	0.4755
900	0.4028
909	0.3688
918	0.3631
927	0.3908
936	0.4602
945	0.5417
954	0.5433
963	0.3335
972	0.3339
981	0.5614
990	0.5212
999	0.6727
1008	0.7126
1017	0.7273
1026	0.7269
1035	0.7185
1044	0.6783
1053	0.707
1062	0.7057
1071	0.6872
1080	0.6655
1089	0.6372
1098	0.5765
1107	0.5723
1116	0.7074
1125	0.7174
1134	0.713
1143	0.6964
1152	0.6718
1161	0.6383
1170	0.606
1179	0.5717
1188	0.5339
1197	0.4839
1206	0.4076
1215	0.2737
1224	0.2207
1233	0.4034
1242	0.5823
1251	0.6368
1260	0.5789
1269	0.5076
1278	0.4276
1287	0.324
1296	0.2625
1305	0.277
1314	0.2095
1323	0.2816
1332	0.4407
1341	0.5549
1350	0.6601
1359	0.6551
1368	0.5472
1377	0.4871
1386	0.643
1395	0.6019
1404	0.5039
1413	0.4059
1422	0.3595
1431	0.3666
1440	0.3363
1449	0.4015
1458	0.5878
1467	0.6736
1476	0.7174
1485	0.7326
1494	0.7257
1503	0.7149
1512	0.7043
1521	0.6826
1530	0.6515
1539	0.6453
1548	0.6544
1557	0.6526
1566	0.644
1575	0.6316
1584	0.6077
1593	0.5789
1602	0.55
1611	0.5064
1620	0.4404
1629	0.3548
1638	0.2837
1647	0.2297
1656	0.2119
1665	0.319
1674	0.2576
1683	0.1938
1692	0.1807
1701	0.1496
1710	0.183
1719	0.266
1728	0.3801
1737	0.4384
1746	0.493
1755	0.5318
1764	0.5462
1773	0.5498
1782	0.5483
1791	0.5488
1800	0.559
1809	0.5707
1818	0.5866
1827	0.5987
1836	0.6067
1845	0.613
1854	0.6187
1863	0.6219
1872	0.6176
1881	0.6133
1890	0.6105
1899	0.6123
1908	0.6165
1917	0.6296
1926	0.638
1935	0.6389
1944	0.6412
1953	0.6426
1962	0.6439
1971	0.6447
1980	0.6507
1989	0.6565
1998	0.6575
2007	0.6521
2016	0.6517
2025	0.6561
2034	0.6608
2043	0.6598
2052	0.6583
2061	0.6564
2070	0.6534
2079	0.6502
2088	0.647
2097	0.6438
2106	0.6416
2115	0.6386
2124	0.6312
2133	0.6211
2142	0.6139
2151	0.618
2160	0.6249
2169	0.6349
2178	0.6367
2187	0.6296
2196	0.6211
2205	0.6112
2214	0.6042
2223	0.6025
2232	0.5996
2241	0.5965
2250	0.5939
2259	0.5902
2268	0.5782
2277	0.573
2286	0.5673
2295	0.5542
2304	0.5487
2313	0.5445
2322	0.5402
2331	0.5357
2340	0.5323
2349	0.5302
2358	0.5275
2367	0.5206
2376	0.5152
2385	0.509
2394	0.5022
2403	0.4948
2412	0.4866
2421	0.4763
2430	0.4713
2439	0.4673
2448	0.4642
2457	0.4574
2466	0.4374
2475	0.4206
2484	0.4109
2493	0.4008
2502	0.3897
2511	0.3803
2520	0.3746
2529	0.373
2538	0.3696
2547	0.3656
2556	0.3609
2565	0.3584
2574	0.3569
2583	0.3519
2592	0.344
2601	0.3363
2610	0.3357
2619	0.3407
2628	0.3491
2637	0.3563
2646	0.3576
2655	0.3557
2664	0.3519
2673	0.3506
2682	0.3507
2691	0.3506
2700	0.3482
2709	0.3466
2718	0.346
2727	0.3475
2736	0.3546
2745	0.3684
2754	0.3759
2763	0.378
2772	0.3768
2781	0.3697
2790	0.3575
2799	0.3462
2808	0.3337
2817	0.3216
2826	0.3164
2835	0.3137
2844	0.3122
2853	0.3118
2862	0.3125
2871	0.3118
2880	0.3061
2889	0.295
2898	0.2867
2907	0.2825
2916	0.2792
2925	0.2783
2934	0.2884
2943	0.2974
2952	0.2972
2961	0.2913
2970	0.2859
2979	0.2819
2988	0.285
2997	0.2906
3006	0.298
3015	0.3052
3024	0.3076
3033	0.309
3042	0.3101
3051	0.3105
3060	0.31
3069	0.3083
3078	0.3086
3087	0.3138
3096	0.3203
3105	0.3263
3114	0.3325
3123	0.3422
3132	0.364
3141	0.3807
3150	0.3879
3159	0.3942
3168	0.4006
3177	0.4069
3186	0.4133
3195	0.4196
3204	0.4267
3213	0.4343
3222	0.4405
3231	0.4469
3240	0.4532
3249	0.4594
3258	0.4656
3267	0.4722
3276	0.4791
3285	0.4862
3294	0.4939
3303	0.5019
3312	0.5101
3321	0.5171
3330	0.5225
3339	0.5279
3348	0.5332
3357	0.5383
3366	0.5434
3375	0.5472
3384	0.55
3393	0.5518
3402	0.5535
3411	0.5552
3420	0.5568
3429	0.5583
3438	0.5599
3447	0.5617
3456	0.5635
3465	0.5659
3474	0.5689
3483	0.5719
3492	0.575
3501	0.5856
3510	0.592
3519	0.5951
3528	0.5984
3537	0.6024
3546	0.6072
3555	0.6121
3564	0.6173
3573	0.6226
3582	0.6281
3591	0.6336
3600	0.6389
3609	0.6443
3618	0.6489
3627	0.6534
3636	0.6576
3645	0.6612
3654	0.6631
3663	0.6635
3672	0.6627
3681	0.6623
3690	0.667
3699	0.6669
3708	0.6653
3717	0.6632
3726	0.661
3735	0.6587
3744	0.6568
3753	0.6549
3762	0.6567
3771	0.6592
3780	0.6602
3789	0.6606
3798	0.6603
3807	0.6573
3816	0.6542
