Infrared Spectrum: SEMICARBAZIDE, 4-METHYL-
Formula: C2 H7 N3 O
CAS: 17696-95-6
State: SOLID (0.7 mg / 500 mg KBr DISC)
Melting point: 109 C
Class: COBLENTZ III
Instrument: PERKIN-ELMER 221 (GRATING)
Instrument parameters: FILTER CHANGES AT 2490, 980 CM^-^1, GRATING FOR 4000-1428 CM^-^1, NaCl PRISM FOR 1428-650 CM^-^1
Sampling: TRANSMISSION
Resolution: 4
Origin: SOUTHERN RESEARCH INST.
1/CM	TRANSMITTANCE
606.613	0.442
616.619	0.444
626.625	0.464
636.63	0.484
646.636	0.511
656.642	0.514
666.648	0.487
676.653	0.455
686.659	0.459
696.665	0.47
706.671	0.506
716.676	0.533
726.682	0.57
736.688	0.584
746.694	0.591
756.699	0.586
766.705	0.567
776.711	0.591
786.717	0.692
796.722	0.714
806.728	0.732
816.734	0.756
826.74	0.77
836.746	0.782
846.751	0.786
856.757	0.788
866.763	0.787
876.769	0.778
886.774	0.761
896.78	0.731
906.786	0.729
916.792	0.723
926.797	0.707
936.803	0.678
946.809	0.639
956.815	0.596
966.82	0.53
976.826	0.497
986.832	0.516
996.838	0.595
1006.84	0.644
1016.85	0.636
1026.86	0.55
1036.86	0.438
1046.87	0.505
1056.87	0.641
1066.88	0.685
1076.88	0.684
1086.89	0.666
1096.9	0.62
1106.9	0.535
1116.91	0.495
1126.91	0.579
1136.92	0.559
1146.92	0.491
1156.93	0.415
1166.94	0.418
1176.94	0.364
1186.95	0.407
1196.95	0.551
1206.96	0.634
1216.96	0.663
1226.97	0.663
1236.98	0.659
1246.98	0.651
1256.99	0.624
1266.99	0.597
1277	0.561
1287	0.534
1297.01	0.511
1307.02	0.497
1317.02	0.414
1327.03	0.321
1337.03	0.376
1347.04	0.471
1357.05	0.478
1367.05	0.492
1377.06	0.483
1387.06	0.435
1397.07	0.366
1407.07	0.292
1417.08	0.355
1427.09	0.52
1437.09	0.5
1447.1	0.453
1457.1	0.446
1467.11	0.438
1477.11	0.409
1487.12	0.383
1497.13	0.36
1507.13	0.347
1517.14	0.327
1527.14	0.281
1537.15	0.23
1547.15	0.176
1557.16	0.135
1567.17	0.13
1577.17	0.156
1587.18	0.217
1597.18	0.242
1607.19	0.24
1617.2	0.217
1627.2	0.178
1637.21	0.162
1647.21	0.165
1657.22	0.15
1667.22	0.123
1677.23	0.138
1687.24	0.171
1697.24	0.232
1707.25	0.274
1717.25	0.33
1727.26	0.383
1737.26	0.42
1747.27	0.447
1757.28	0.477
1767.28	0.501
1777.29	0.518
1787.29	0.535
1797.3	0.548
1807.3	0.57
1817.31	0.583
1827.32	0.594
1837.32	0.606
1847.33	0.618
1857.33	0.631
1867.34	0.642
1877.34	0.649
1887.35	0.659
1897.36	0.661
1907.36	0.666
1917.37	0.671
1927.37	0.681
1937.38	0.69
1947.39	0.696
1957.39	0.702
1967.4	0.709
1977.4	0.712
1987.41	0.713
1997.41	0.715
2007.42	0.718
2017.43	0.722
2027.43	0.723
2037.44	0.726
2047.44	0.727
2057.45	0.729
2067.45	0.73
2077.46	0.737
2087.47	0.742
2097.47	0.745
2107.48	0.746
2117.48	0.747
2127.49	0.748
2137.49	0.752
2147.5	0.757
2157.51	0.759
2167.51	0.761
2177.52	0.762
2187.52	0.762
2197.53	0.762
2207.54	0.762
2217.54	0.762
2227.55	0.762
2237.55	0.762
2247.56	0.762
2257.56	0.762
2267.57	0.762
2277.58	0.761
2287.58	0.759
2297.59	0.759
2307.59	0.758
2317.6	0.757
2327.6	0.756
2337.61	0.754
2347.62	0.753
2357.62	0.756
2367.63	0.757
2377.63	0.76
2387.64	0.765
2397.64	0.766
2407.65	0.765
2417.66	0.763
2427.66	0.761
2437.67	0.757
2447.67	0.756
2457.68	0.755
2467.68	0.755
2477.69	0.756
2487.7	0.756
2497.7	0.757
2507.71	0.757
2517.71	0.757
2527.72	0.757
2537.73	0.756
2547.73	0.756
2557.74	0.756
2567.74	0.755
2577.75	0.755
2587.75	0.755
2597.76	0.754
2607.77	0.754
2617.77	0.754
2627.78	0.754
2637.78	0.753
2647.79	0.752
2657.79	0.742
2667.8	0.737
2677.81	0.734
2687.81	0.731
2697.82	0.728
2707.82	0.722
2717.83	0.719
2727.83	0.716
2737.84	0.713
2747.85	0.708
2757.85	0.702
2767.86	0.685
2777.86	0.675
2787.87	0.66
2797.88	0.646
2807.88	0.643
2817.89	0.643
2827.89	0.646
2837.9	0.636
2847.9	0.611
2857.91	0.575
2867.92	0.543
2877.92	0.505
2887.93	0.486
2897.93	0.484
2907.94	0.464
2917.94	0.449
2927.95	0.446
2937.96	0.434
2947.96	0.418
2957.97	0.414
2967.97	0.451
2977.98	0.494
2987.98	0.501
2997.99	0.503
3008	0.506
3018	0.508
3028.01	0.508
3038.01	0.507
3048.02	0.499
3058.02	0.489
3068.03	0.476
3078.04	0.462
3088.04	0.445
3098.05	0.441
3108.05	0.446
3118.06	0.452
3128.07	0.454
3138.07	0.447
3148.08	0.432
3158.08	0.419
3168.09	0.379
3178.09	0.351
3188.1	0.329
3198.11	0.315
3208.11	0.286
3218.12	0.273
3228.12	0.269
3238.13	0.263
3248.13	0.25
3258.14	0.227
3268.15	0.21
3278.15	0.204
3288.16	0.183
3298.16	0.152
3308.17	0.137
3318.17	0.138
3328.18	0.156
3338.19	0.184
3348.19	0.202
3358.2	0.199
3368.2	0.202
3378.21	0.232
3388.22	0.264
3398.22	0.288
3408.23	0.316
3418.23	0.345
3428.24	0.361
3438.24	0.389
3448.25	0.404
3458.26	0.419
3468.26	0.448
3478.27	0.456
3488.27	0.464
3498.28	0.474
3508.28	0.488
3518.29	0.502
3528.3	0.514
3538.3	0.519
3548.31	0.523
3558.31	0.528
3568.32	0.538
3578.32	0.545
3588.33	0.561
3598.34	0.568
3608.34	0.579
3618.35	0.583
3628.35	0.595
3638.36	0.6
3648.36	0.601
3658.37	0.605
3668.38	0.607
3678.38	0.609
3688.39	0.621
3698.39	0.623
3708.4	0.625
3718.41	0.626
3728.41	0.626
3738.42	0.628
3748.42	0.63
3758.43	0.632
3768.43	0.636
3778.44	0.636
3788.45	0.637
3798.45	0.637
3808.46	0.637
3818.46	0.638
3828.47	0.638
3838.47	0.638
3848.48	0.638
3858.49	0.638
3868.49	0.638
3878.5	0.638
3888.5	0.638
3898.51	0.638
3908.51	0.638
3918.52	0.638
3928.53	0.638
3938.53	0.638
3948.54	0.638
3958.54	0.638
3968.55	0.638
3978.56	0.639
3988.56	0.639
3998.57	0.64
4008.57	0.641
