Infrared Spectrum: 2-Bromo-2-butene
Formula: C 4 H 7 Br
CAS: 13294-71-8
State: gas
Instrument: HP-GC/MS/IRD
Origin: NIST Mass Spectrometry Data Center
1/CM	ABSORBANCE
550	0.002777
562	0.002326
574	0.00023
586	0.000112
598	0.000128
610	0.000123
622	0.000106
634	5.4e-05
646	7.7e-05
658	0.000105
670	0.000129
682	0.00011
694	0.000111
706	5e-05
718	8.6e-05
730	9.4e-05
742	0.000207
754	0.00041
766	0.001246
778	0.002809
790	0.004567
802	0.003455
814	0.002013
826	0.00096
838	0.001173
850	0.001741
862	0.001791
874	0.001551
886	0.002783
898	0.003699
910	0.003218
922	0.00123
934	0.000533
946	0.000421
958	0.000356
970	0.000422
982	0.000536
994	0.000713
1006	0.001438
1018	0.00207
1030	0.002587
1042	0.002554
1054	0.002449
1066	0.0022
1078	0.001642
1090	0.001171
1102	0.001045
1114	0.002296
1126	0.006023
1138	0.007432
1150	0.005694
1162	0.001581
1174	0.000615
1186	0.000365
1198	0.000353
1210	0.000303
1222	0.000312
1234	0.000411
1246	0.000727
1258	0.001319
1270	0.003044
1282	0.006669
1294	0.006932
1306	0.004434
1318	0.001045
1330	0.000518
1342	0.000548
1354	0.000767
1366	0.001405
1378	0.002122
1390	0.002372
1402	0.001455
1414	0.00169
1426	0.002378
1438	0.003077
1450	0.002707
1462	0.002162
1474	0.001325
1486	0.001012
1498	0.000983
1510	0.001048
1522	0.001053
1534	0.00091
1546	0.000689
1558	0.000739
1570	0.000732
1582	0.000809
1594	0.000709
1606	0.000589
1618	0.000542
1630	0.000655
1642	0.001177
1654	0.002278
1666	0.002422
1678	0.001682
1690	0.000587
1702	0.000303
1714	0.000138
1726	7.8e-05
1738	0.000144
1750	0.000105
1762	0.000105
1774	0.000116
1786	0.000134
1798	0.000166
1810	0.000215
1822	0.000288
1834	0.000256
1846	0.000197
1858	0.000111
1870	9.9e-05
1882	4.4e-05
1894	4e-05
1906	4.9e-05
1918	9.7e-05
1930	8.6e-05
1942	6.9e-05
1954	5.3e-05
1966	9.4e-05
1978	5.5e-05
1990	5e-05
2002	2.7e-05
2014	1.3e-05
2026	3.2e-05
2038	8.4e-05
2050	6.6e-05
2062	6.3e-05
2074	5.8e-05
2086	9.1e-05
2098	6.4e-05
2110	4.4e-05
2122	6.3e-05
2134	7e-05
2146	4.3e-05
2158	5.6e-05
2170	3.7e-05
2182	5.2e-05
2194	9.1e-05
2206	9.4e-05
2218	5.3e-05
2230	3e-05
2242	9.1e-05
2254	7.3e-05
2266	0.000116
2278	0.000134
2290	8.5e-05
2302	6.6e-05
2314	7.2e-05
2326	0.00016
2338	0.000141
2350	0.000135
2362	0.000201
2374	0.000128
2386	0.000119
2398	0.000172
2410	0.000164
2422	0.000188
2434	0.000183
2446	0.000207
2458	0.000245
2470	0.000235
2482	0.00014
2494	0.000148
2506	0.000133
2518	0.000134
2530	0.000123
2542	0.000109
2554	6.8e-05
2566	7.6e-05
2578	5.4e-05
2590	5.1e-05
2602	1.8e-05
2614	0.000102
2626	6e-06
2638	2.7e-05
2650	7.1e-05
2662	6.6e-05
2674	5.2e-05
2686	9.5e-05
2698	0.000114
2710	0.000185
2722	0.000246
2734	0.000404
2746	0.000472
2758	0.000405
2770	0.000221
2782	0.000221
2794	0.000372
2806	0.000549
2818	0.000617
2830	0.00088
2842	0.001368
2854	0.002337
2866	0.003349
2878	0.003679
2890	0.003601
2902	0.004234
2914	0.006913
2926	0.01
2938	0.009969
2950	0.007305
2962	0.006204
2974	0.006335
2986	0.005597
2998	0.004287
3010	0.005156
3022	0.005718
3034	0.004205
3046	0.002177
3058	0.001096
3070	0.00081
3082	0.000723
3094	0.000644
3106	0.000512
3118	0.000452
3130	0.000383
3142	0.000306
3154	0.000184
3166	0.000153
3178	0.00011
3190	7.2e-05
3202	0.000113
3214	0.000143
3226	0.000109
3238	7.7e-05
3250	5.3e-05
3262	4.9e-05
3274	8.7e-05
3286	0.000113
3298	0.000168
3310	6.3e-05
3322	8.9e-05
3334	0.0001
3346	0.000134
3358	1.7e-05
3370	8.1e-05
3382	0.000102
3394	0.000124
3406	9e-06
3418	5.1e-05
3430	8e-05
3442	9.4e-05
3454	0.000135
3466	0.000148
3478	0.000149
3490	0.000213
3502	0.000152
3514	6.8e-05
3526	0.000111
3538	0.000136
3550	0.000125
3562	0.000139
3574	8.4e-05
3586	9.5e-05
3598	0.000171
3610	0.000143
3622	0.000103
3634	0.000107
3646	0.000148
3658	0.000193
3670	0.000214
3682	0.000125
3694	0.000139
3706	5.5e-05
3718	0.000167
3730	0.000159
3742	0.000217
3754	0.00019
3766	0.000206
3778	0.00018
3790	7.5e-05
3802	0.000196
3814	0.000245
3826	0.000167
3838	0.000203
