Infrared Spectrum: 1,4-BUTANEDIOL
Formula: C 4 H 10 O 2
CAS: 110-63-4
State: GAS
Instrument: Nicolet Nexus
Path length: 8.36
Resolution: 4.0009
Temperature: 230 C
Origin: Forensic Spectral Research
1/CM	ABSORBANCE
3999.71	0.0327256
3990.07	0.0336267
3980.42	0.0328646
3970.78	0.0334756
3961.14	0.0352313
3951.5	0.0342266
3941.85	0.03639
3932.21	0.0375241
3922.57	0.036035
3912.93	0.0352514
3903.28	0.0401351
3893.64	0.0388893
3884	0.0407353
3874.36	0.0412762
3864.71	0.0417008
3855.07	0.0423292
3845.43	0.0404366
3835.79	0.0409579
3826.14	0.0396742
3816.5	0.0395372
3806.86	0.0386445
3797.22	0.0386609
3787.57	0.0386002
3777.93	0.038068
3768.29	0.0390478
3758.65	0.0411377
3749	0.0426912
3739.36	0.0449502
3729.72	0.0456105
3720.08	0.0499647
3710.43	0.059604
3700.79	0.077224
3691.15	0.124058
3681.51	0.211014
3671.86	0.261117
3662.22	0.246886
3652.58	0.182525
3642.94	0.121687
3633.29	0.0935403
3623.65	0.0820759
3614.01	0.0818195
3604.37	0.0799859
3594.72	0.0825966
3585.08	0.0839935
3575.44	0.0864685
3565.8	0.0993208
3556.15	0.092842
3546.51	0.0889752
3536.87	0.0701966
3527.23	0.0563626
3517.58	0.0463965
3507.94	0.045271
3498.3	0.0440693
3488.66	0.0437132
3479.01	0.0440093
3469.37	0.0421036
3459.73	0.0419773
3450.09	0.0396286
3440.44	0.0387867
3430.8	0.0375259
3421.16	0.0372743
3411.52	0.0356449
3401.87	0.0348574
3392.23	0.0342995
3382.59	0.0332595
3372.95	0.0324798
3363.3	0.0320872
3353.66	0.0311767
3344.02	0.0303274
3334.38	0.0297
3324.73	0.0288913
3315.09	0.0283841
3305.45	0.0280903
3295.81	0.0278561
3286.16	0.0278386
3276.52	0.0279676
3266.88	0.0280501
3257.24	0.0284804
3247.59	0.0287717
3237.95	0.0290073
3228.31	0.0292364
3218.67	0.0292894
3209.02	0.0294092
3199.38	0.0294494
3189.74	0.0297187
3180.1	0.0298713
3170.45	0.0301043
3160.81	0.0301802
3151.17	0.0303635
3141.53	0.0307309
3131.88	0.0312894
3122.24	0.0319272
3112.6	0.0324747
3102.96	0.0333582
3093.31	0.0343028
3083.67	0.0354626
3074.03	0.0370258
3064.39	0.0391907
3054.74	0.0420782
3045.1	0.0460415
3035.46	0.0518407
3025.82	0.0607581
3016.17	0.0765736
3006.53	0.104497
2996.89	0.148794
2987.25	0.225534
2977.6	0.375409
2967.96	0.539072
2958.32	0.7441
2948.68	0.914123
2939.03	0.986526
2929.39	0.93509
2919.75	0.819673
2910.11	0.71548
2900.46	0.658994
2890.82	0.657779
2881.18	0.63004
2871.54	0.541992
2861.89	0.424418
2852.25	0.320536
2842.61	0.234577
2832.97	0.17454
2823.32	0.138331
2813.68	0.118743
2804.04	0.108384
2794.4	0.101135
2784.75	0.0950793
2775.11	0.0895282
2765.47	0.0846973
2755.83	0.0794593
2746.18	0.0755349
2736.54	0.0713066
2726.9	0.0673301
2717.26	0.0633366
2707.61	0.059843
2697.97	0.0563007
2688.33	0.0529563
2678.69	0.0495255
2669.04	0.0465996
2659.4	0.0438789
2649.76	0.0416827
2640.12	0.039871
2630.47	0.0383296
2620.83	0.0370327
2611.19	0.0359505
2601.55	0.0349897
2591.9	0.0342168
2582.26	0.0336278
2572.62	0.0331536
2562.98	0.0327896
2553.33	0.0325734
2543.69	0.0324119
2534.05	0.0324283
2524.41	0.03235
2514.76	0.032117
2505.12	0.0318975
2495.48	0.0318612
2485.84	0.0319228
2476.19	0.0321386
2466.55	0.0323995
2456.91	0.0326776
2447.27	0.0330644
2437.62	0.0333323
2427.98	0.0335089
2418.34	0.0334769
2408.7	0.0332569
2399.05	0.0330094
2389.41	0.0329252
2379.77	0.032841
2370.13	0.0327568
2360.48	0.0326727
2350.84	0.0325885
2341.2	0.0325044
2331.56	0.0324203
2321.91	0.0323362
2312.27	0.0322522
2302.63	0.0321681
2292.99	0.0320841
2283.34	0.032
2273.7	0.031916
2264.06	0.0315108
2254.42	0.0309687
2244.77	0.0305846
2235.13	0.0303605
2225.49	0.0303324
2215.85	0.0303662
2206.2	0.0305105
2196.56	0.0305999
2186.92	0.0307112
2177.28	0.0306124
2167.63	0.0304257
2157.99	0.0302823
2148.35	0.0301678
2138.71	0.0304676
2129.06	0.030775
2119.42	0.0312522
2109.78	0.0315643
2100.14	0.0319854
2090.49	0.0329016
2080.85	0.0331357
2071.21	0.0339726
2061.57	0.0349534
2051.92	0.0352641
2042.28	0.0354571
2032.64	0.0343629
2023	0.0339545
2013.35	0.033462
2003.71	0.0330506
1994.07	0.0331716
1984.43	0.032178
1974.78	0.0316284
1965.14	0.0318372
1955.5	0.0315068
1945.86	0.0317211
1936.21	0.0315868
1926.57	0.0315766
1916.93	0.0321187
1907.29	0.0313211
1897.64	0.0307059
1888	0.0306306
1878.36	0.0305046
1868.72	0.0330288
1859.07	0.0314242
1849.43	0.0327424
1839.79	0.0352702
1830.15	0.0419744
1820.5	0.0443428
1810.86	0.0463738
1801.22	0.0474768
1791.58	0.0438998
1781.93	0.0413187
1772.29	0.0448567
1762.65	0.0481388
1753.01	0.052149
1743.36	0.0547843
1733.72	0.0499841
1724.08	0.0434611
1714.44	0.0429132
1704.79	0.0392472
1695.15	0.0352957
1685.51	0.0342128
1675.87	0.0312291
1666.22	0.0298098
1656.58	0.0306057
1646.94	0.0332102
1637.3	0.0338022
1627.65	0.033202
1618.01	0.0344307
1608.37	0.0342595
1598.73	0.0342141
1589.08	0.0340387
1579.44	0.0340983
1569.8	0.0357601
1560.16	0.0389273
1550.51	0.0389582
1540.87	0.0412619
1531.23	0.0410731
1521.59	0.045961
1511.94	0.0508712
1502.3	0.057343
1492.66	0.0765386
1483.02	0.0969837
1473.37	0.110308
1463.73	0.114776
1454.09	0.127434
1444.45	0.134843
1434.8	0.135571
1425.16	0.135561
1415.52	0.15132
1405.88	0.18621
1396.23	0.232247
1386.59	0.24564
1376.95	0.222217
1367.31	0.188298
1357.66	0.171428
1348.02	0.163202
1338.38	0.161655
1328.74	0.145263
1319.09	0.143072
1309.45	0.144803
1299.81	0.153093
1290.17	0.165535
1280.52	0.175398
1270.88	0.184129
1261.24	0.190277
1251.6	0.195092
1241.95	0.198552
1232.31	0.197718
1222.67	0.190491
1213.03	0.18112
1203.38	0.17188
1193.74	0.16459
1184.1	0.159565
1174.46	0.15671
1164.81	0.156636
1155.17	0.154437
1145.53	0.151407
1135.89	0.151108
1126.24	0.155976
1116.6	0.175877
1106.96	0.225972
1097.32	0.29814
1087.67	0.374222
1078.03	0.452844
1068.39	0.580378
1058.75	0.781732
1049.1	0.959941
1039.46	0.946547
1029.82	0.780497
1020.18	0.599324
1010.53	0.487943
1000.89	0.419236
991.249	0.368153
981.606	0.324251
971.964	0.28068
962.321	0.243492
952.679	0.212522
943.036	0.186023
933.394	0.164274
923.751	0.139087
914.109	0.117165
904.466	0.0968285
894.824	0.0831364
885.181	0.0774631
875.539	0.074522
865.896	0.0726929
856.254	0.0689981
846.611	0.0645903
836.969	0.0604019
827.326	0.0567629
817.684	0.0530548
808.041	0.0501066
798.399	0.0476717
788.756	0.0459459
779.114	0.0446524
769.471	0.0445575
759.829	0.0452038
750.186	0.0451639
740.544	0.0456161
730.901	0.0431564
721.259	0.0435647
711.616	0.0415269
701.974	0.0495102
692.331	0.0428301
682.689	0.0434935
673.046	0.0437709
663.404	0.0416007
653.761	0.0429949
644.119	0.0431044
634.476	0.0435877
624.834	0.0427976
615.191	0.0434931
605.549	0.0439385
595.906	0.0461375
586.264	0.0486439
576.621	0.0515925
566.979	0.0527314
557.336	0.0572248
547.694	0.062864
538.051	0.0681439
528.409	0.0730532
518.766	0.0765238
509.124	0.0755603
499.481	0.0721714
489.839	0.0747724
480.196	0.0753924
470.554	0.0850688
460.911	0.0927454
451.269	0.100583
441.626	0.11082
431.984	0.106117
422.341	0.106099
412.699	0.0979935
403.056	0.10244
