Infrared Spectrum: Carbon tetrabromide
Formula: C Br 4
CAS: 558-13-4
State: gas
Origin: EPA-IR VAPOR PHASE LIBRARY
1/CM	ABSORBANCE
501.5	0.000377
513.074	0.00050541
524.648	0.000299
536.222	0.0004102
547.796	0.0004902
559.37	0.000342
570.944	0.000374
582.518	0.0006863
594.092	0.0008026
605.666	0.0007004
617.24	0.0009623
628.814	0.001599
640.388	0.003239
651.962	0.009289
663.536	0.027729
675.11	0.093169
686.684	0.008239
698.258	0.001849
709.832	0.0011214
721.406	0.0009482
732.98	0.0007634
744.554	0.0007026
756.128	0.0007017
767.702	0.0006411
779.276	0.000763
790.85	0.0008794
802.423	0.0008061
813.997	0.00057838
825.571	0.00057451
837.145	0.00056328
848.719	0.0006468
860.293	0.0006158
871.867	0.0005809
883.441	0.00056153
895.015	0.0004782
906.589	0.0004883
918.163	0.0006381
929.737	0.0007422
941.311	0.0010044
952.885	0.00053308
964.459	0.000508114
976.033	0.00055132
987.607	0.000395
999.181	0.000457
1010.76	0.000408
1022.33	0.000298
1033.9	0.000277
1045.48	0.000484
1057.05	0.0004637
1068.63	0.0004211
1080.2	0.000264
1091.77	0.0004101
1103.35	0.0004581
1114.92	0.0004623
1126.49	0.00047
1138.07	0.0004467
1149.64	0.0004959
1161.22	0.0004612
1172.79	0.000311
1184.36	0.000347
1195.94	0.000223
1207.51	0.00036
1219.09	0.000244
1230.66	0.000296
1242.23	0.00032
1253.81	0
1265.38	2.2e-05
1276.96	0.000238
1288.53	0.000277
1300.1	0.0004132
1311.68	0.00051932
1323.25	0.0006575
1334.83	0.0007716
1346.4	0.0007879
1357.97	0.0007579
1369.55	0.0006438
1381.12	0.00057822
1392.7	0.00056796
1404.27	0.00055946
1415.84	0.00055995
1427.42	0.00058985
1438.99	0.00060831
1450.57	0.0005973
1462.14	0.0006133
1473.71	0.0006233
1485.29	0.0006176
1496.86	0.0006914
1508.44	0.0007051
1520.01	0.0007556
1531.58	0.0007415
1543.16	0.0007225
1554.73	0.0006266
1566.31	0.0006508
1577.88	0.0006151
1589.45	0.00059279
1601.03	0.00056948
1612.6	0.00058758
1624.18	0.00056973
1635.75	0.00057122
1647.32	0.00054425
1658.9	0.00050354
1670.47	0.00052193
1682.05	0.0005601
1693.62	0.00053252
1705.19	0.00051949
1716.77	0.00050451
1728.34	0.000465
1739.92	0.00050971
1751.49	0.0004674
1763.06	0.0004965
1774.64	0.0004982
1786.21	0.0004837
1797.79	0.00052782
1809.36	0.00054164
1820.93	0.000517362
1832.51	0.00054709
1844.08	0.00055424
1855.66	0.00054279
1867.23	0.00054544
1878.8	0.00056394
1890.38	0.00054133
1901.95	0.00054739
1913.53	0.000513264
1925.1	0.00056796
1936.67	0.00054705
1948.25	0.00054339
1959.82	0.00054871
1971.4	0.00053438
1982.97	0.00055147
1994.54	0.00053722
2006.12	0.00053489
2017.69	0.00053657
2029.27	0.00054412
2040.84	0.00057702
2052.41	0.00056868
2063.99	0.00056312
2075.56	0.00052974
2087.14	0.00057082
2098.71	0.00054197
2110.28	0.00053285
2121.86	0.000514937
2133.43	0.00053296
2145.01	0.00051995
2156.58	0.00052225
2168.15	0.00053739
2179.73	0.00056168
2191.3	0.00054647
2202.88	0.00055157
2214.45	0.00055734
2226.02	0.00056698
2237.6	0.00056829
2249.17	0.00059021
2260.74	0.00052727
2272.32	0.00054235
2283.89	0.00053007
2295.47	0.000565
2307.04	0.00059004
2318.61	0.00055819
2330.19	0.00059873
2341.76	0.00056167
2353.34	0.00059336
2364.91	0.0005766
2376.48	0.00059042
2388.06	0.00060155
2399.63	0.00056691
2411.21	0.0006129
2422.78	0.00057123
2434.35	0.00052427
2445.93	0.00052026
2457.5	0.00056809
2469.08	0.00060667
2480.65	0.00057993
2492.22	0.00055594
2503.8	0.00054872
2515.37	0.0005684
2526.95	0.00058108
2538.52	0.00058477
2550.09	0.00055243
2561.67	0.0005645
2573.24	0.00057636
2584.82	0.0006106
2596.39	0.00059761
2607.96	0.00058651
2619.54	0.00058417
2631.11	0.0006242
2642.69	0.00060319
2654.26	0.00058444
2665.83	0.0006165
2677.41	0.0006293
2688.98	0.00055885
2700.56	0.00056693
2712.13	0.00057774
2723.7	0.0006306
2735.28	0.0006818
2746.85	0.000665
2758.43	0.0006131
2770	0.0006369
2781.57	0.00057662
2793.15	0.00057147
2804.72	0.0006406
2816.3	0.0006252
2827.87	0.00060171
2839.44	0.00059774
2851.02	0.0006489
2862.59	0.0006252
2874.17	0.000645
2885.74	0.000615
2897.31	0.00057342
2908.89	0.00060472
2920.46	0.0006202
2932.04	0.0006248
2943.61	0.000622
2955.18	0.0006411
2966.76	0.00055812
2978.33	0.0006384
2989.91	0.0006234
3001.48	0.0006447
3013.05	0.000582
3024.63	0.00060177
3036.2	0.0006217
3047.78	0.00060381
3059.35	0.00060271
3070.92	0.00060029
3082.5	0.0006511
3094.07	0.00060722
3105.65	0.0006302
3117.22	0.0006744
3128.79	0.0006342
3140.37	0.0007459
3151.94	0.0006622
3163.52	0.000685
3175.09	0.0006408
3186.66	0.0006515
3198.24	0.0006271
3209.81	0.0006478
3221.39	0.00057263
3232.96	0.00053315
3244.53	0.00057939
3256.11	0.00060483
3267.68	0.0006437
3279.26	0.00058773
3290.83	0.0006312
3302.4	0.00058352
3313.98	0.00058672
3325.55	0.0006152
3337.13	0.000623
3348.7	0.0006447
3360.27	0.0006538
3371.85	0.000731
3383.42	0.000645
3395	0.0006205
3406.57	0.0006329
3418.14	0.0006344
3429.72	0.0006301
3441.29	0.0007124
3452.86	0.0006724
3464.44	0.0006595
3476.01	0.0006794
3487.59	0.0006623
3499.16	0.00058775
3510.73	0.0006136
3522.31	0.0006267
3533.88	0.00056784
3545.46	0.0006082
3557.03	0.00057392
3568.6	0.0007023
3580.18	0.0006799
3591.75	0.0006471
3603.33	0.00057639
3614.9	0.00052168
3626.47	0.00057877
3638.05	0.0006438
3649.62	0.0006212
3661.2	0.00059654
3672.77	0.0006797
3684.34	0.00059916
3695.92	0.000653
3707.49	0.0007239
3719.07	0.0006311
3730.64	0.0006248
3742.21	0.0006508
3753.79	0.0006663
3765.36	0.00057186
3776.94	0.00055486
3788.51	0.0006645
3800.08	0.00060695
3811.66	0.0007375
3823.23	0.0006469
3834.81	0.0006132
3846.38	0.0005951
3857.95	0.0006859
3869.53	0.00055659
3881.1	0.00060618
3892.68	0.0006426
3904.25	0.0007212
3915.82	0.0006559
3927.4	0.0007244
3938.97	0.0006589
3950.55	0.0007134
3962.12	0.00055028
3973.69	0.00055277
3985.27	0.00055744
3996.84	0.0007419
