Infrared Spectrum: Carbon tetrabromide
Formula: C Br4
CAS: 558-13-4
State: SOLUTION (10% CCl4 FOR 3800-1350, 10% CS2 FOR 1350-400 CM^-^1)
Class: COBLENTZ II
Instrument: DOW KBr FOREPRISM-GRATING
Instrument parameters: BLAZED AT 3.5, 12.0, 20.0 MICRON AND CHANGED AT 5.0, 7.5, 14.9 MICRON
Sampling: TRANSMISSION
Path length: 0.011 CM, 0.011 CM
Resolution: 2
Origin: DOW CHEMICAL COMPANY
1/CM	TRANSMITTANCE
3800	0.8687
3791	0.8689
3782	0.8691
3773	0.8693
3764	0.8696
3755	0.8692
3746	0.8688
3737	0.8683
3728	0.8678
3719	0.8674
3710	0.8671
3701	0.8666
3692	0.8663
3683	0.8667
3674	0.8673
3665	0.8677
3656	0.8683
3647	0.8688
3638	0.8692
3629	0.8695
3620	0.8699
3611	0.8702
3602	0.8706
3593	0.8712
3584	0.8721
3575	0.8732
3566	0.8741
3557	0.8751
3548	0.876
3539	0.8768
3530	0.8778
3521	0.8786
3512	0.8795
3503	0.8804
3494	0.8813
3485	0.882
3476	0.8828
3467	0.8836
3458	0.8844
3449	0.8851
3440	0.8859
3431	0.8866
3422	0.8874
3413	0.8881
3404	0.8889
3395	0.8896
3386	0.8903
3377	0.8908
3368	0.8914
3359	0.8918
3350	0.8924
3341	0.8928
3332	0.8933
3323	0.8937
3314	0.8941
3305	0.8944
3296	0.8946
3287	0.8946
3278	0.8947
3269	0.8947
3260	0.8947
3251	0.8947
3242	0.8943
3233	0.8937
3224	0.893
3215	0.8923
3206	0.8917
3197	0.8909
3188	0.8902
3179	0.8895
3170	0.8888
3161	0.888
3152	0.8873
3143	0.8868
3134	0.8867
3125	0.8864
3116	0.8862
3107	0.8859
3098	0.8857
3089	0.8854
3080	0.8857
3071	0.8864
3062	0.8871
3053	0.8878
3044	0.8887
3035	0.8891
3026	0.8891
3017	0.8891
3008	0.8891
2999	0.8891
2990	0.8891
2981	0.8891
2972	0.8889
2963	0.8886
2954	0.8883
2945	0.8878
2936	0.8877
2927	0.8873
2918	0.887
2909	0.887
2900	0.887
2891	0.8871
2882	0.8871
2873	0.8873
2864	0.8874
2855	0.8874
2846	0.8875
2837	0.8875
2828	0.8875
2819	0.8877
2810	0.8877
2801	0.8877
2792	0.8878
2783	0.8878
2774	0.8878
2765	0.8878
2756	0.8878
2747	0.8878
2738	0.8878
2729	0.8878
2720	0.8878
2711	0.8878
2702	0.8878
2693	0.8878
2684	0.8881
2675	0.8883
2666	0.8886
2657	0.8888
2648	0.8891
2639	0.8893
2630	0.8894
2621	0.8894
2612	0.8894
2603	0.8895
2594	0.8895
2585	0.8895
2576	0.8896
2567	0.8896
2558	0.8897
2549	0.8898
2540	0.8899
2531	0.8899
2522	0.8899
2513	0.8898
2504	0.8899
2495	0.8902
2486	0.8906
2477	0.8909
2468	0.8904
2459	0.8894
2450	0.8887
2441	0.8878
2432	0.8871
2423	0.8871
2414	0.8874
2405	0.8875
2396	0.8875
2387	0.8878
2378	0.8885
2369	0.889
2360	0.8896
2351	0.8899
2342	0.8902
2333	0.8904
2324	0.8906
2315	0.8905
2306	0.8905
2297	0.8904
2288	0.8904
2279	0.8903
2270	0.8903
2261	0.8902
2252	0.8901
2243	0.8899
2234	0.8898
2225	0.8893
2216	0.8888
2207	0.8886
2198	0.8902
2189	0.8944
2180	0.8878
2171	0.888
2162	0.8889
2153	0.8889
2144	0.8886
2135	0.888
2126	0.8874
2117	0.8868
2108	0.8868
2099	0.8867
2090	0.8867
2081	0.8865
2072	0.8863
2063	0.886
2054	0.8858
2045	0.8858
2036	0.8858
2027	0.8859
2018	0.886
2009	0.8862
2000	0.8865
1991	0.8902
1982	0.8937
1973	0.8951
1964	0.8961
1955	0.897
1946	0.8977
1937	0.8983
1928	0.8989
1919	0.8986
1910	0.8982
1901	0.8978
1892	0.8978
1883	0.8977
1874	0.8978
1865	0.8992
1856	0.9005
1847	0.9009
1838	0.9012
1829	0.9015
1820	0.9017
1811	0.9021
1802	0.9028
1793	0.9037
1784	0.9047
1775	0.9063
1766	0.9083
1757	0.9097
1748	0.9105
1739	0.9105
1730	0.9104
1721	0.9098
1712	0.9091
1703	0.9091
1694	0.9059
1685	0.9031
1676	0.9025
1667	0.9021
1658	0.9013
1649	0.9003
1640	0.8996
1631	0.899
1622	0.8992
1613	0.8996
1604	0.9002
1595	0.9007
1586	0.8994
1577	0.8954
1568	0.8921
1559	0.8908
1550	0.8889
1541	0.8888
1532	0.8921
1523	0.8957
1514	0.892
1505	0.8902
1496	0.8899
1487	0.8895
1478	0.8892
1469	0.8892
1460	0.8848
1451	0.8843
1442	0.8832
1433	0.8792
1424	0.8747
1415	0.8714
1406	0.8674
1397	0.8637
1388	0.8631
1379	0.8643
1370	0.866
1361	0.8681
1352	0.8714
1343	0.87
1334	0.8697
1325	0.8766
1316	0.8828
1307	0.888
1298	0.8923
1289	0.894
1280	0.8928
1271	0.8927
1262	0.8938
1253	0.8949
1244	0.8956
1235	0.8977
1226	0.9015
1217	0.8999
1208	0.8981
1199	0.8968
1190	0.8965
1181	0.8964
1172	0.8964
1163	0.8988
1154	0.9
1145	0.8961
1136	0.8962
1127	0.8966
1118	0.8973
1109	0.898
1100	0.8983
1091	0.8983
1082	0.8986
1073	0.9003
1064	0.9
1055	0.8988
1046	0.8974
1037	0.8965
1028	0.8967
1019	0.8958
1010	0.8907
1001	0.8875
992	0.8867
983	0.8866
974	0.8854
965	0.8842
956	0.883
947	0.8816
938	0.8594
929	0.8731
920	0.8805
911	0.8828
902	0.8849
893	0.8847
884	0.8828
875	0.8775
866	0.8738
857	0.8671
848	0.8736
839	0.8782
830	0.8787
821	0.8778
812	0.8758
803	0.8671
794	0.8578
785	0.867
776	0.8694
767	0.8662
758	0.8516
749	0.7693
740	0.83
731	0.8492
722	0.8465
713	0.8418
704	0.8334
695	0.8097
686	0.7644
677	0.2862
668	0
659	0.3897
650	0.5971
641	0.6941
632	0.8115
623	0.8374
614	0.85
605	0.8546
596	0.8588
587	0.8618
578	0.8635
569	0.8625
560	0.8605
551	0.8562
542	0.85
533	0.8483
524	0.8606
515	0.8645
506	0.8628
497	0.8599
488	0.8506
479	0.8521
470	0.8575
461	0.8568
452	0.8551
443	0.8553
434	0.8559
425	0.8571
416	0.8585
407	0.8597
398	0.8607
