Infrared Spectrum: CARBON TETRABROMIDE
Formula: C Br4
CAS: 558-13-4
State: SOLID (KBr DISC)
Class: COBLENTZ III
Instrument: BECKMAN IR-9 (GRATING)
Instrument parameters: ORDER CHANGES: 670, 1200, 2000 CM^-^1
Sampling: TRANSMISSION
Resolution: 2
Origin: DOW CHEMICAL COMPANY
1/CM	TRANSMITTANCE
401	0.4958
410	0.664
419	0.6682
428	0.6735
437	0.6758
446	0.6755
455	0.6701
464	0.6624
473	0.6619
482	0.6706
491	0.6868
500	0.7011
509	0.7107
518	0.7145
527	0.7237
536	0.7314
545	0.7371
554	0.7418
563	0.7458
572	0.7478
581	0.7474
590	0.7458
599	0.7411
608	0.7335
617	0.7175
626	0.6822
635	0.5737
644	0.4758
653	0.2589
662	0.0734
671	0.0924
680	0.2894
689	0.5738
698	0.6701
707	0.7232
716	0.7507
725	0.7676
734	0.7789
743	0.7678
752	0.7544
761	0.789
770	0.8085
779	0.8203
788	0.8253
797	0.8246
806	0.8305
815	0.8427
824	0.8452
833	0.8586
842	0.8613
851	0.8578
860	0.8532
869	0.8504
878	0.8468
887	0.843
896	0.8387
905	0.8346
914	0.8312
923	0.8285
932	0.8188
941	0.8071
950	0.806
959	0.8057
968	0.7951
977	0.7768
986	0.7728
995	0.7708
1004	0.7638
1013	0.7567
1022	0.7499
1031	0.744
1040	0.7385
1049	0.7357
1058	0.7321
1067	0.7247
1076	0.7175
1085	0.7115
1094	0.7119
1103	0.7172
1112	0.7242
1121	0.7308
1130	0.7358
1139	0.7396
1148	0.7425
1157	0.739
1166	0.7369
1175	0.7374
1184	0.7387
1193	0.743
1202	0.7425
1211	0.7317
1220	0.7236
1229	0.7308
1238	0.7361
1247	0.7342
1256	0.7347
1265	0.7391
1274	0.7304
1283	0.7386
1292	0.7436
1301	0.7414
1310	0.7341
1319	0.7257
1328	0.7111
1337	0.6982
1346	0.6974
1355	0.6997
1364	0.7049
1373	0.7058
1382	0.7058
1391	0.7053
1400	0.7039
1409	0.7051
1418	0.7067
1427	0.7065
1436	0.7041
1445	0.6967
1454	0.6982
1463	0.7014
1472	0.7012
1481	0.6899
1490	0.6754
1499	0.6821
1508	0.6904
1517	0.6925
1526	0.6911
1535	0.6875
1544	0.6883
1553	0.6901
1562	0.6911
1571	0.6898
1580	0.6851
1589	0.6789
1598	0.6738
1607	0.673
1616	0.6686
1625	0.6658
1634	0.6628
1643	0.6628
1652	0.6631
1661	0.6654
1670	0.6695
1679	0.6728
1688	0.6761
1697	0.6807
1706	0.6825
1715	0.6835
1724	0.6836
1733	0.6836
1742	0.6831
1751	0.6831
1760	0.6832
1769	0.683
1778	0.6825
1787	0.6819
1796	0.6815
1805	0.6808
1814	0.6803
1823	0.6792
1832	0.6781
1841	0.6768
1850	0.6757
1859	0.6755
1868	0.6751
1877	0.673
1886	0.6708
1895	0.6694
1904	0.6685
1913	0.6671
1922	0.6656
1931	0.664
1940	0.6621
1949	0.6603
1958	0.6583
1967	0.6562
1976	0.6542
1985	0.6521
1994	0.6515
2003	0.6498
2012	0.6454
2021	0.6407
2030	0.6358
2039	0.6325
2048	0.6299
2057	0.6277
2066	0.627
2075	0.6262
2084	0.6256
2093	0.6254
2102	0.6253
2111	0.6253
2120	0.6248
2129	0.6233
2138	0.6209
2147	0.6184
2156	0.6168
2165	0.6155
2174	0.6142
2183	0.6133
2192	0.6127
2201	0.6121
2210	0.6115
2219	0.6101
2228	0.6085
2237	0.6069
2246	0.6054
2255	0.6037
2264	0.6022
2273	0.6006
2282	0.5991
2291	0.5983
2300	0.5974
2309	0.5966
2318	0.5969
2327	0.5976
2336	0.5983
2345	0.599
2354	0.5997
2363	0.6004
2372	0.5989
2381	0.5954
2390	0.5901
2399	0.5842
2408	0.5824
2417	0.5814
2426	0.5808
2435	0.5794
2444	0.5782
2453	0.5772
2462	0.5762
2471	0.5753
2480	0.5744
2489	0.5736
2498	0.5735
2507	0.5734
2516	0.5727
2525	0.5717
2534	0.5709
2543	0.5702
2552	0.5695
2561	0.5685
2570	0.5675
2579	0.5665
2588	0.5655
2597	0.5642
2606	0.563
2615	0.5616
2624	0.5604
2633	0.559
2642	0.5578
2651	0.5565
2660	0.5553
2669	0.5539
2678	0.5523
2687	0.5506
2696	0.549
2705	0.5475
2714	0.5462
2723	0.545
2732	0.5437
2741	0.5424
2750	0.541
2759	0.5397
2768	0.5385
2777	0.5371
2786	0.5358
2795	0.5341
2804	0.5324
2813	0.5306
2822	0.5289
2831	0.5267
2840	0.5242
2849	0.5217
2858	0.5192
2867	0.5167
2876	0.5148
2885	0.5134
2894	0.5122
2903	0.5108
2912	0.5095
2921	0.5079
2930	0.5062
2939	0.5047
2948	0.5036
2957	0.5029
2966	0.5023
2975	0.503
2984	0.5039
2993	0.5048
3002	0.5058
3011	0.5068
3020	0.5077
3029	0.5079
3038	0.5079
3047	0.5058
3056	0.5039
3065	0.5023
3074	0.5007
3083	0.499
3092	0.4969
3101	0.4948
3110	0.4928
3119	0.4907
3128	0.4887
3137	0.4869
3146	0.4852
3155	0.4835
3164	0.4817
3173	0.48
3182	0.478
3191	0.4757
3200	0.4734
3209	0.471
3218	0.4687
3227	0.4664
3236	0.4638
3245	0.461
3254	0.4584
3263	0.4556
3272	0.4529
3281	0.4501
3290	0.4473
3299	0.4444
3308	0.4416
3317	0.4387
3326	0.4359
3335	0.4325
3344	0.4291
3353	0.4256
3362	0.4222
3371	0.4188
3380	0.4156
3389	0.413
3398	0.4103
3407	0.4076
3416	0.4054
3425	0.404
3434	0.4026
3443	0.401
3452	0.4
3461	0.3997
3470	0.3993
3479	0.3999
3488	0.4007
3497	0.4014
3506	0.4025
3515	0.4037
3524	0.4049
3533	0.4062
3542	0.4084
3551	0.4105
3560	0.4129
3569	0.416
3578	0.4191
3587	0.4222
3596	0.4252
3605	0.428
3614	0.4308
3623	0.4336
3632	0.436
3641	0.4383
3650	0.44
3659	0.4412
3668	0.4426
3677	0.4436
3686	0.4445
3695	0.4449
3704	0.4454
3713	0.4456
3722	0.4455
3731	0.4454
3740	0.4452
3749	0.4449
3758	0.4441
3767	0.4425
3776	0.4408
3785	0.4391
3794	0.4373
