Infrared Spectrum: Methane, dibromochloro-
Formula: C H Br 2 Cl
CAS: 124-48-1
State: gas
Origin: Sadtler Research Labs Under US-EPA Contract
1/CM	ABSORBANCE
450	0.0449983
462	0.00653009
474	0.0204214
486	0.00961705
498	0.0106856
510	0.0167408
522	0.00783611
534	0.00866722
546	0.0193528
558	0.0357374
570	0.0712374
582	0.0562775
594	0.0144849
606	0.015791
618	0.0166221
630	0.0162659
642	0.0962892
654	0.478359
666	1.1474
678	0.744668
690	0.0122291
702	0.0218461
714	0.0458294
726	0.168714
738	0.464112
750	1.05289
762	0.957906
774	0.128109
786	0.0108043
798	0.00664882
810	0.00759866
822	0.00664882
834	0.00854849
846	0.00747993
858	0.00783611
870	0.00759866
882	0.00688628
894	0.00653009
906	0.00771738
918	0.00724247
930	0.00878595
942	0.0112793
954	0.00914213
966	0.00688628
978	0.0073612
990	0.00700501
1002	0.00653009
1014	0.00664882
1026	0.00569899
1038	0.00700501
1050	0.00724247
1062	0.00581772
1074	0.00700501
1086	0.00807357
1098	0.00641137
1110	0.00783611
1122	0.0188779
1134	0.0875033
1146	0.492369
1158	0.380408
1170	0.0279013
1182	0.12799
1194	0.191272
1206	0.0884531
1218	0.0143662
1230	0.0122291
1242	0.00926086
1254	0.00641137
1266	0.00653009
1278	0.00605518
1290	0.00700501
1302	0.00937959
1314	0.0110418
1326	0.0105669
1338	0.00961705
1350	0.00878595
1362	0.00771738
1374	0.00593645
1386	0.0073612
1398	0.00641137
1410	0.00831103
1422	0.00807357
1434	0.0073612
1446	0.00641137
1458	0.00486789
1470	0.00866722
1482	0.0121104
1494	0.0121104
1506	0.0102107
1518	0.00581772
1530	0.00498662
1542	0.00403679
1554	0.00320568
1566	0.00510535
1578	0.00463043
1590	0.00546153
1602	0.00593645
1614	0.00415551
1626	0.00664882
1638	0.00356187
1650	0.00629264
1662	0.00427424
1674	0.0045117
1686	0.00213712
1698	0.00332441
1710	0.00474916
1722	0.00474916
1734	0.00486789
1746	0.00463043
1758	0.00486789
1770	0.00486789
1782	0.00356187
1794	0.0053428
1806	0.00474916
1818	0.00474916
1830	0.00486789
1842	0.00332441
1854	0.00486789
1866	0.00379933
1878	0.00415551
1890	0.00463043
1902	0.00463043
1914	0.00415551
1926	0.0045117
1938	0.00463043
1950	0.00474916
1962	0.00463043
1974	0.00403679
1986	0.00427424
1998	0.00403679
2010	0.00427424
2022	0.00391806
2034	0.00427424
2046	0.00379933
2058	0.00403679
2070	0.00379933
2082	0.00379933
2094	0.00379933
2106	0.00379933
2118	0.00379933
2130	0.00403679
2142	0.00332441
2154	0.00356187
2166	0.00356187
2178	0.00356187
2190	0.00391806
2202	0.00403679
2214	0.00403679
2226	0.00427424
2238	0.00427424
2250	0.00439297
2262	0.00546153
2274	0.00890467
2286	0.0142475
2298	0.00783611
2310	0.00439297
2322	0.00546153
2334	0.0073612
2346	0.00653009
2358	0.00688628
2370	0.00795484
2382	0.00937959
2394	0.00474916
2406	0.00344314
2418	0.00356187
2430	0.00332441
2442	0.00320568
2454	0.00320568
2466	0.00344314
2478	0.00308695
2490	0.00308695
2502	0.00308695
2514	0.0028495
2526	0.00296822
2538	0.00308695
2550	0.00296822
2562	0.0028495
2574	0.00273077
2586	0.00261204
2598	0.00261204
2610	0.00261204
2622	0.00273077
2634	0.00273077
2646	0.00273077
2658	0.00237458
2670	0.00237458
2682	0.00213712
2694	0.00261204
2706	0.00249331
2718	0.00201839
2730	0.00213712
2742	0.00201839
2754	0.00189966
2766	0.00178093
2778	0.00189966
2790	0.00213712
2802	0.00261204
2814	0.00261204
2826	0.00249331
2838	0.0028495
2850	0.00261204
2862	0.00249331
2874	0.00261204
2886	0.00273077
2898	0.00261204
2910	0.00296822
2922	0.0028495
2934	0.00296822
2946	0.00344314
2958	0.0028495
2970	0.00273077
2982	0.00308695
2994	0.00261204
3006	0.00403679
3018	0.00403679
3030	0.0102107
3042	0.0273077
3054	0.0204214
3066	0.00653009
3078	0.00261204
3090	0.00332441
3102	0.00296822
3114	0.00296822
3126	0.00356187
3138	0.00296822
3150	0.00261204
3162	0.00320568
3174	0.0028495
3186	0.00308695
3198	0.00308695
3210	0.0028495
3222	0.00308695
3234	0.00320568
3246	0.00308695
3258	0.00320568
3270	0.00332441
3282	0.00296822
3294	0.00332441
3306	0.00308695
3318	0.00320568
3330	0.00391806
3342	0.00379933
3354	0.00379933
3366	0.00344314
3378	0.00332441
3390	0.00379933
3402	0.00379933
3414	0.00427424
3426	0.00415551
3438	0.00379933
3450	0.00391806
3462	0.00403679
3474	0.00332441
3486	0.00439297
3498	0.00379933
3510	0.00356187
3522	0.00379933
3534	0.00391806
3546	0.00439297
3558	0.00403679
3570	0.00439297
3582	0.00391806
3594	0.00617391
3606	0.00403679
3618	0.00629264
3630	0.00771738
3642	0.00391806
3654	0.00486789
3666	0.00166221
3678	0.00890467
3690	0.00391806
3702	0.00439297
3714	0.00558026
3726	0.00569899
3738	0.0053428
3750	0.00463043
3762	0.00427424
3774	0.00415551
3786	0.00332441
3798	0.00474916
3810	0.00201839
3822	0.00771738
3834	0.00510535
3846	0.00546153
3858	0.00724247
3870	0.00688628
3882	0.00700501
3894	0.00486789
3906	0.00510535
3918	0.00486789
3930	0.00403679
3942	0.00498662
3954	0.00391806
3966	0.00403679
