Infrared Spectrum: s-Amyliodide
Formula: C 5 H 11 I
CAS: 637-97-8
State: gas
Instrument: HP-GC/MS/IRD
Origin: NIST Mass Spectrometry Data Center
1/CM	ABSORBANCE
550	0.0003393
562	0.0003068
574	0.0004901
586	0.0009464
598	0.001014
610	0.0004173
622	0.0001703
634	0.0001638
646	0.0002067
658	0.000104
670	0.0001378
682	0.0001482
694	0.0002704
706	0.0004121
718	0.0007124
730	0.0008164
742	0.000585
754	0.0004394
766	0.0004901
778	0.0004524
790	0.0002808
802	0.0002769
814	0.0002548
826	0.0002561
838	0.0002964
850	0.000273
862	0.0002002
874	0.0001716
886	0.0001625
898	0.0001664
910	0.0003055
922	0.0003679
934	0.0002457
946	0.0001807
958	0.000156
970	6.89e-05
982	2.21e-05
994	0.0001235
1006	0.0001534
1018	0.0001508
1030	0.0002977
1042	0.0002808
1054	0.0002418
1066	0.000234
1078	0.0002808
1090	0.0003809
1102	0.0003302
1114	0.0002873
1126	0.0003458
1138	0.000455
1150	0.0007878
1162	0.001742
1174	0.0043355
1186	0.0042042
1198	0.0020878
1210	0.0016107
1222	0.0026702
1234	0.0037206
1246	0.0023166
1258	0.0016081
1270	0.0013923
1282	0.0011999
1294	0.0012181
1306	0.0009503
1318	0.0006682
1330	0.0007475
1342	0.0009321
1354	0.0008814
1366	0.0007488
1378	0.0008242
1390	0.0008619
1402	0.000663
1414	0.0007163
1426	0.0011635
1438	0.001612
1450	0.0018291
1462	0.0019864
1474	0.0014807
1486	0.0007995
1498	0.0004433
1510	0.0002366
1522	0.0001898
1534	0.0001521
1546	0.0001118
1558	0.0001092
1570	0.0001248
1582	0.0001326
1594	0.0001547
1606	0.0001625
1618	0.000104
1630	0.0001352
1642	9.75e-05
1654	8.19e-05
1666	9.62e-05
1678	0.0001157
1690	0.0001222
1702	8.06e-05
1714	6.37e-05
1726	9.88e-05
1738	5.46e-05
1750	7.93e-05
1762	8.06e-05
1774	8.97e-05
1786	8.06e-05
1798	8.45e-05
1810	7.15e-05
1822	8.06e-05
1834	8.45e-05
1846	7.28e-05
1858	7.02e-05
1870	4.81e-05
1882	6.63e-05
1894	7.8e-05
1906	6.76e-05
1918	6.24e-05
1930	7.28e-05
1942	6.5e-05
1954	9.62e-05
1966	7.8e-05
1978	5.85e-05
1990	4.42e-05
2002	5.85e-05
2014	0.0001053
2026	7.67e-05
2038	8.32e-05
2050	9.75e-05
2062	9.23e-05
2074	8.45e-05
2086	6.63e-05
2098	8.06e-05
2110	9.36e-05
2122	5.98e-05
2134	8.45e-05
2146	9.36e-05
2158	7.15e-05
2170	8.45e-05
2182	0.000104
2194	7.02e-05
2206	6.76e-05
2218	6.24e-05
2230	6.37e-05
2242	4.29e-05
2254	6.5e-05
2266	6.63e-05
2278	8.45e-05
2290	6.63e-05
2302	5.2e-05
2314	6.5e-05
2326	5.59e-05
2338	5.72e-05
2350	8.06e-05
2362	2.73e-05
2374	6.37e-05
2386	7.54e-05
2398	8.58e-05
2410	5.72e-05
2422	7.15e-05
2434	6.37e-05
2446	4.55e-05
2458	4.81e-05
2470	1.04e-05
2482	3.12e-05
2494	4.68e-05
2506	4.42e-05
2518	4.81e-05
2530	7.67e-05
2542	7.8e-05
2554	1.69e-05
2566	3.9e-05
2578	7.93e-05
2590	6.5e-05
2602	8.84e-05
2614	8.19e-05
2626	0.0001274
2638	0.0001053
2650	0.0001079
2662	0.0001573
2674	0.0001365
2686	0.0001729
2698	0.0001677
2710	0.0001547
2722	0.0001508
2734	0.0001846
2746	0.0002379
2758	0.0002366
2770	0.0002743
2782	0.0002782
2794	0.0003718
2806	0.000507
2818	0.0007787
2830	0.0011921
2842	0.0020878
2854	0.0033839
2866	0.0047333
2878	0.0058071
2890	0.0058318
2902	0.005317
2914	0.0065884
2926	0.0099541
2938	0.0129389
2950	0.011895
2962	0.0117806
2974	0.0116025
2986	0.0059631
2998	0.0029419
3010	0.0019838
3022	0.001508
3034	0.0010127
3046	0.0006877
3058	0.0004979
3070	0.0003744
3082	0.0003913
3094	0.0003601
3106	0.000338
3118	0.0002665
3130	0.0001638
3142	0.0002483
3154	0.0002041
3166	0.0002158
3178	0.0001313
3190	0.0001391
3202	0.000104
3214	4.94e-05
3226	8.06e-05
3238	2.34e-05
3250	7.02e-05
3262	1.56e-05
3274	5.59e-05
3286	5.2e-05
3298	4.42e-05
3310	0.0001001
3322	0.000104
3334	2.6e-06
3346	0.0001053
3358	8.32e-05
3370	0.0001235
3382	8.45e-05
3394	0.0001222
3406	0.0001183
3418	0.0001027
3430	0.0001092
3442	8.32e-05
3454	0.0001326
3466	7.28e-05
3478	0.00013
3490	2.34e-05
3502	4.16e-05
3514	8.58e-05
3526	6.11e-05
3538	8.45e-05
3550	0.0001235
3562	7.15e-05
3574	4.42e-05
3586	6.76e-05
3598	0.0001768
3610	5.98e-05
3622	5.2e-05
3634	3.9e-05
3646	7.28e-05
3658	9.36e-05
3670	0.0001183
3682	0.0001131
3694	0.0001027
3706	4.94e-05
3718	0.0001456
3730	6.76e-05
3742	2.47e-05
3754	4.29e-05
3766	0.0001157
3778	0.0001482
3790	4.03e-05
3802	0.0001066
3814	0.0001183
3826	6.11e-05
3838	3.64e-05
