Infrared Spectrum: TETRAMETHYLSILANE
Formula: C4 H12 Si
CAS: 75-76-3
State: SOLUTION (5% IN CCl4 FOR 3800-1160, 2% IN CS2 FOR 1320-500, AND 5% IN CCl4 FOR 600-230 CM^-^1)
Boiling point: 27.0 C
Class: COBLENTZ III
Instrument: PERKIN-ELMER 521 (GRATING)
Instrument parameters: FILTERS AT 3150, 2500, 2000, 1150, 700, 410. GRATING CHANGES: 2000, 630 CM^-^1
Sampling: TRANSMISSION
Path length: 0.011 CM, 0.011 CM, AND 0.021 CM
Resolution: 2
Origin: DOW CORNING CORP.
1/CM	TRANSMITTANCE
223.054	0.871
232.416	0.871
241.778	0.893
251.141	0.907
260.503	0.921
269.865	0.926
279.227	0.93
288.589	0.924
297.952	0.927
307.314	0.937
316.676	0.934
326.038	0.924
335.401	0.919
344.763	0.91
354.125	0.896
363.487	0.888
372.849	0.881
382.212	0.887
391.574	0.874
400.936	0.857
410.298	0.864
419.66	0.855
429.023	0.855
438.385	0.849
447.747	0.845
457.109	0.842
466.471	0.842
475.834	0.842
485.196	0.847
494.558	0.849
503.92	0.851
513.283	0.85
522.645	0.851
532.007	0.861
541.369	0.873
550.731	0.88
560.094	0.882
569.456	0.886
578.818	0.888
588.18	0.89
597.542	0.893
606.905	0.896
616.267	0.897
625.629	0.897
634.991	0.896
644.353	0.896
653.716	0.896
663.078	0.889
672.44	0.875
681.802	0.797
691.164	0.4989
700.527	0.716
709.889	0.847
719.251	0.874
728.613	0.878
737.976	0.889
747.338	0.895
756.7	0.895
766.062	0.891
775.424	0.89
784.787	0.88
794.149	0.865
803.511	0.844
812.873	0.796
822.235	0.745
831.598	0.636
840.96	0.458
850.322	0.1619
859.684	0.045
869.046	0.2381
878.409	0.601
887.771	0.742
897.133	0.814
906.495	0.86
915.858	0.882
925.22	0.886
934.582	0.89
943.944	0.888
953.306	0.88
962.669	0.867
972.031	0.852
981.393	0.857
990.755	0.868
1000.12	0.869
1009.48	0.871
1018.84	0.885
1028.2	0.887
1037.57	0.887
1046.93	0.891
1056.29	0.897
1065.65	0.895
1075.02	0.894
1084.38	0.895
1093.74	0.898
1103.1	0.896
1112.46	0.897
1121.83	0.895
1131.19	0.9
1140.55	0.904
1149.91	0.908
1159.27	0.903
1168.64	0.905
1178	0.901
1187.36	0.897
1196.72	0.894
1206.09	0.885
1215.45	0.868
1224.81	0.816
1234.17	0.572
1243.53	0.1142
1252.9	0.694
1262.26	0.811
1271.62	0.809
1280.98	0.749
1290.35	0.821
1299.71	0.874
1309.07	0.874
1318.43	0.874
1327.79	0.826
1337.16	0.824
1346.52	0.831
1355.88	0.83
1365.24	0.823
1374.61	0.807
1383.97	0.78
1393.33	0.777
1402.69	0.756
1412.05	0.659
1421.42	0.4721
1430.78	0.7091
1440.14	0.801
1449.5	0.823
1458.87	0.824
1468.23	0.816
1477.59	0.809
1486.95	0.833
1496.31	0.849
1505.68	0.86
1515.04	0.862
1524.4	0.873
1533.76	0.875
1543.13	0.88
1552.49	0.882
1561.85	0.882
1571.21	0.881
1580.57	0.883
1589.94	0.886
1599.3	0.88
1608.66	0.876
1618.02	0.872
1627.39	0.872
1636.75	0.873
1646.11	0.881
1655.47	0.878
1664.83	0.878
1674.2	0.879
1683.56	0.879
1692.92	0.879
1702.28	0.88
1711.65	0.88
1721.01	0.88
1730.37	0.881
1739.73	0.882
1749.09	0.881
1758.46	0.88
1767.82	0.881
1777.18	0.881
1786.54	0.881
1795.91	0.881
1805.27	0.881
1814.63	0.876
1823.99	0.869
1833.35	0.845
1842.72	0.864
1852.08	0.875
1861.44	0.874
1870.8	0.874
1880.17	0.88
1889.53	0.88
1898.89	0.876
1908.25	0.871
1917.61	0.862
1926.98	0.853
1936.34	0.828
1945.7	0.849
1955.06	0.869
1964.43	0.873
1973.79	0.869
1983.15	0.874
1992.51	0.876
2001.87	0.8821
2011.24	0.894
2020.6	0.8939
2029.96	0.891
2039.32	0.89
2048.68	0.89
2058.05	0.889
2067.41	0.889
2076.77	0.889
2086.13	0.888
2095.5	0.8866
2104.86	0.8815
2114.22	0.8755
2123.58	0.869
2132.94	0.8862
2142.31	0.893
2151.67	0.895
2161.03	0.894
2170.39	0.894
2179.76	0.894
2189.12	0.894
2198.48	0.894
2207.84	0.896
2217.2	0.898
2226.57	0.9011
2235.93	0.904
2245.29	0.902
2254.65	0.901
2264.02	0.901
2273.38	0.901
2282.74	0.903
2292.1	0.903
2301.46	0.9044
2310.83	0.9095
2320.19	0.912
2329.55	0.914
2338.91	0.9108
2348.28	0.909
2357.64	0.908
2367	0.908
2376.36	0.9055
2385.72	0.905
2395.09	0.904
2404.45	0.904
2413.81	0.904
2423.17	0.905
2432.54	0.905
2441.9	0.904
2451.26	0.903
2460.62	0.903
2469.98	0.9004
2479.35	0.893
2488.71	0.8966
2498.07	0.9033
2507.43	0.9024
2516.8	0.907
2526.16	0.907
2535.52	0.905
2544.88	0.905
2554.24	0.905
2563.61	0.905
2572.97	0.905
2582.33	0.905
2591.69	0.904
2601.06	0.904
2610.42	0.904
2619.78	0.903
2629.14	0.902
2638.5	0.897
2647.87	0.895
2657.23	0.8971
2666.59	0.9
2675.95	0.898
2685.32	0.898
2694.68	0.9
2704.04	0.8994
2713.4	0.898
2722.76	0.898
2732.13	0.8966
2741.49	0.8935
2750.85	0.8865
2760.21	0.881
2769.58	0.8754
2778.94	0.8657
2788.3	0.8536
2797.66	0.8276
2807.02	0.778
2816.39	0.8147
2825.75	0.816
2835.11	0.8208
2844.47	0.832
2853.83	0.829
2863.2	0.7968
2872.56	0.7408
2881.92	0.5973
2891.28	0.549
2900.65	0.6005
2910.01	0.6418
2919.37	0.671
2928.73	0.6326
2938.09	0.4425
2947.46	0.2355
2956.82	0.062
2966.18	0.2994
2975.54	0.5807
2984.91	0.7187
2994.27	0.7939
3003.63	0.8248
3012.99	0.8357
3022.35	0.8428
3031.72	0.847
3041.08	0.8529
3050.44	0.8579
3059.8	0.862
3069.17	0.865
3078.53	0.868
3087.89	0.871
3097.25	0.871
3106.61	0.871
3115.98	0.872
3125.34	0.8815
3134.7	0.8867
3144.06	0.8854
3153.43	0.89
3162.79	0.894
3172.15	0.895
3181.51	0.8935
3190.87	0.888
3200.24	0.8936
3209.6	0.8993
3218.96	0.9047
3228.32	0.91
3237.69	0.912
3247.05	0.9125
3256.41	0.912
3265.77	0.912
3275.13	0.912
3284.5	0.914
3293.86	0.914
3303.22	0.914
3312.58	0.914
3321.95	0.914
3331.31	0.914
3340.67	0.914
3350.03	0.914
3359.39	0.914
3368.76	0.914
3378.12	0.914
3387.48	0.914
3396.84	0.914
3406.21	0.912
3415.57	0.912
3424.93	0.912
3434.29	0.912
3443.65	0.912
3453.02	0.912
3462.38	0.912
3471.74	0.912
3481.1	0.912
3490.47	0.911
3499.83	0.911
3509.19	0.911
3518.55	0.91
3527.91	0.91
3537.28	0.907
3546.64	0.905
3556	0.903
3565.36	0.902
3574.73	0.902
3584.09	0.902
3593.45	0.901
3602.81	0.9005
3612.17	0.8964
3621.54	0.8946
3630.9	0.8976
3640.26	0.898
3649.62	0.897
3658.99	0.895
3668.35	0.894
3677.71	0.8901
3687.07	0.8871
3696.43	0.883
3705.8	0.888
3715.16	0.891
3724.52	0.891
3733.88	0.889
3743.24	0.8798
3752.61	0.875
3761.97	0.8768
3771.33	0.8876
3780.69	0.894
