Infrared Spectrum: Silane, tetramethyl-
Formula: C 4 H 12 Si
CAS: 75-76-3
State: gas
Origin: Sadtler Research Labs Under US-EPA Contract
1/CM	ABSORBANCE
450	0.000480222
462	0.00640296
474	0.00128059
486	0.00352163
498	0.00400185
510	0.00416192
522	0.00592274
534	0.00512237
546	0.00720333
558	0.00560259
570	0.00448207
582	0.00512237
594	0.00544252
606	0.00640296
618	0.00928429
630	0.008644
642	0.0171279
654	0.0550655
666	0.0558658
678	0.0941235
690	0.207776
702	0.201693
714	0.146148
726	0.318227
738	1.13925
750	1.3387
762	0.17272
774	0.0478621
786	0.0342558
798	0.0467416
810	0.0624289
822	0.0957243
834	0.157353
846	0.354084
858	1.03552
870	1.42034
882	0.646059
894	0.353283
906	0.722894
918	0.728337
930	0.153031
942	0.0289734
954	0.0161675
966	0.0116854
978	0.00928429
990	0.00928429
1002	0.00816377
1014	0.00832385
1026	0.0073634
1038	0.00576266
1050	0.00624289
1062	0.00496229
1074	0.00448207
1086	0.00624289
1098	0.00976451
1110	0.00960444
1122	0.00480222
1134	0.00288133
1146	0.00352163
1158	0.00416192
1170	0.00416192
1182	0.00544252
1194	0.00464215
1206	0.00656303
1218	0.019369
1230	0.06483
1242	0.250996
1254	0.445006
1266	0.334235
1278	0.148709
1290	0.10821
1302	0.06499
1314	0.0137664
1326	0.00944437
1338	0.0102447
1350	0.0113653
1362	0.012966
1374	0.0166477
1386	0.023691
1398	0.028013
1410	0.0315346
1422	0.0360167
1434	0.0392181
1446	0.0241712
1458	0.0147268
1470	0.0153671
1482	0.0164876
1494	0.0148869
1506	0.0123257
1518	0.00752348
1530	0.00592274
1542	0.00560259
1554	0.00464215
1566	0.00480222
1578	0.0036817
1590	0.00288133
1602	0.00320148
1614	0.00304141
1626	0.00352163
1638	0.0036817
1650	0.0036817
1662	0.0036817
1674	0.00336155
1686	0.00240111
1698	0.00240111
1710	0.00208096
1722	0.00208096
1734	0.00192089
1746	0.00208096
1758	0.00208096
1770	0.00224104
1782	0.00240111
1794	0.00336155
1806	0.00416192
1818	0.00480222
1830	0.00672311
1842	0.00784363
1854	0.00592274
1866	0.00416192
1878	0.00352163
1890	0.00320148
1902	0.00288133
1914	0.00352163
1926	0.00624289
1938	0.00928429
1950	0.00992459
1962	0.008644
1974	0.00608281
1986	0.00464215
1998	0.0036817
2010	0.00240111
2022	0.00208096
2034	0.00256118
2046	0.00288133
2058	0.00304141
2070	0.00320148
2082	0.00320148
2094	0.00320148
2106	0.00352163
2118	0.00384178
2130	0.00512237
2142	0.00512237
2154	0.0036817
2166	0.00272126
2178	0.00224104
2190	0.00224104
2202	0.00256118
2214	0.00240111
2226	0.00224104
2238	0.00208096
2250	0.00192089
2262	0.00224104
2274	0.00240111
2286	0.00224104
2298	0.00288133
2310	0.00304141
2322	0.00240111
2334	0.00288133
2346	0.00288133
2358	0.00144067
2370	0.00320148
2382	0.00240111
2394	0.00112052
2406	0.00112052
2418	0.00080037
2430	0.00080037
2442	0.00080037
2454	0.000480222
2466	0.000960444
2478	0.00128059
2490	0.00160074
2502	0.00208096
2514	0.00160074
2526	0.00080037
2538	0.000640296
2550	0.000480222
2562	0.000480222
2574	0.000160074
2586	0.000160074
2598	0.000320148
2610	0.000640296
2622	0.000480222
2634	0.00080037
2646	0.000960444
2658	0.00144067
2670	0.00192089
2682	0.00160074
2694	0.00192089
2706	0.00256118
2718	0.00320148
2730	0.00272126
2742	0.00208096
2754	0.00304141
2766	0.00528244
2778	0.00768355
2790	0.0112052
2802	0.0184085
2814	0.0262521
2826	0.0304141
2838	0.0305741
2850	0.028013
2862	0.0284932
2874	0.0401786
2886	0.0680315
2898	0.0990858
2910	0.0998862
2922	0.0744344
2934	0.0749146
2946	0.21578
2958	0.354564
2970	0.316626
2982	0.178483
2994	0.0379375
3006	0.0201693
3018	0.0208096
3030	0.023691
3042	0.0265723
3054	0.0284932
3066	0.025932
3078	0.0251316
3090	0.0233708
3102	0.0198492
3114	0.0179283
3126	0.015047
3138	0.0116854
3150	0.0104048
3162	0.00672311
3174	0.00480222
3186	0.00480222
3198	0.0073634
3210	0.00720333
3222	0.00496229
3234	0.00160074
3246	0.00112052
3258	0.000960444
3270	0.00080037
3282	0.000320148
3294	0.000640296
3306	0.000160074
3318	0.000640296
3330	0.000480222
3342	0.000320148
3354	0.000640296
3366	0.000320148
3378	0.000960444
3390	0.000160074
3402	0.000640296
3414	0
3426	0.00160074
3438	0.000480222
3450	0.000480222
3462	0.00112052
3474	0.00112052
3486	0.000640296
3498	0.00176081
3510	0.00176081
3522	0.00208096
3534	0.00256118
3546	0.00256118
3558	0.00272126
3570	0.00384178
3582	0.0036817
3594	0.00448207
3606	0.00464215
3618	0.00448207
3630	0.00528244
3642	0.00560259
3654	0.00480222
3666	0.00400185
3678	0.0036817
3690	0.00496229
3702	0.00624289
3714	0.00640296
3726	0.00688318
3738	0.00560259
3750	0.00640296
3762	0.00848392
3774	0.00928429
3786	0.00624289
3798	0.00496229
3810	0.00384178
3822	0.00512237
3834	0.00528244
3846	0.00304141
3858	0.00240111
3870	0.000960444
3882	0.00176081
3894	0.00272126
3906	0.000640296
3918	0.000640296
3930	0.00240111
3942	0.00176081
3954	0.00192089
3966	0.00192089
