Infrared Spectrum: Ethanol, 2,2,2-trifluoro-
Formula: C 2 H 3 F 3 O
CAS: 75-89-8
State: gas
Origin: Sadtler Research Labs Under US-EPA Contract
1/CM	ABSORBANCE
450	0.000671196
462	0.000727129
474	0.000615263
486	0.00139832
498	0.00178986
510	0.00341191
522	0.00727129
534	0.0152697
546	0.0199681
558	0.0147104
570	0.00413904
582	0.00055933
594	0.000279665
606	0.000391531
618	0.00251699
630	0.00900521
642	0.0203596
654	0.0431803
666	0.0564923
678	0.0340073
690	0.00749502
702	0.00134239
714	0.00055933
726	0.00106273
738	0.00123053
750	0.000447464
762	0.000894928
774	0.000894928
786	0.00145426
798	0.00447464
810	0.0129765
822	0.0241631
834	0.025897
846	0.0164443
858	0.00687976
870	0.00447464
882	0.00397124
894	0.00469837
906	0.00911708
918	0.0271275
930	0.0629806
942	0.0942471
954	0.0703637
966	0.0353497
978	0.0146544
990	0.00962048
1002	0.00872555
1014	0.0103476
1026	0.015829
1038	0.0256732
1050	0.0455854
1062	0.0861368
1074	0.171099
1086	0.213552
1098	0.170819
1110	0.0832842
1122	0.0814944
1134	0.153033
1146	0.237044
1158	0.352769
1170	0.489582
1182	0.544116
1194	0.30752
1206	0.0929606
1218	0.0573873
1230	0.0553737
1242	0.101798
1254	0.188382
1266	0.315294
1278	0.39897
1290	0.32855
1302	0.161702
1314	0.0577788
1326	0.0301479
1338	0.0403836
1350	0.0675111
1362	0.0790333
1374	0.0602398
1386	0.0378107
1398	0.0312106
1410	0.0336717
1422	0.0278546
1434	0.0165002
1446	0.0121375
1458	0.0152138
1470	0.0123612
1482	0.00760689
1494	0.00497804
1506	0.00374751
1518	0.00212545
1530	0.000838995
1542	0.000894928
1554	0.000838995
1566	0.00055933
1578	0.000727129
1590	0.000671196
1602	0.000783062
1614	0.000671196
1626	0.000503397
1638	0.00055933
1650	0.000727129
1662	0.000615263
1674	0.000279665
1686	0.000783062
1698	0.000727129
1710	0.000279665
1722	0.000335598
1734	0.000838995
1746	0.00055933
1758	0.000615263
1770	0.00106273
1782	0.000615263
1794	0.000615263
1806	0.000838995
1818	0.00134239
1830	0.00162206
1842	0.00123053
1854	0.000838995
1866	0.000727129
1878	0.000783062
1890	0.000838995
1902	0.000335598
1914	0.000391531
1926	0.000391531
1938	0.000447464
1950	0.000838995
1962	0.00134239
1974	0.00139832
1986	0.00139832
1998	0.00145426
2010	0.00145426
2022	0.000950861
2034	0.000503397
2046	0.000447464
2058	0.000447464
2070	0.000447464
2082	0.000950861
2094	0.00195765
2106	0.00195765
2118	0.00195765
2130	0.00151019
2142	0.00195765
2154	0.00218139
2166	0.00246105
2178	0.00206952
2190	0.00151019
2202	0.00106273
2214	0.00145426
2226	0.00195765
2238	0.00195765
2250	0.00134239
2262	0.000783062
2274	0.000727129
2286	0.000447464
2298	5.5933e-05
2310	5.5933e-05
2322	0.00123053
2334	0.00206952
2346	0.00178986
2358	0.00234919
2370	0.000615263
2382	5.5933e-05
2394	0.00106273
2406	0.00106273
2418	0.00100679
2430	0.000838995
2442	0.00106273
2454	0.000615263
2466	0.000671196
2478	0.000671196
2490	0.000671196
2502	0.000727129
2514	0.000671196
2526	0.000671196
2538	0.000727129
2550	0.000727129
2562	0.000838995
2574	0.000783062
2586	0.000783062
2598	0.000783062
2610	0.000894928
2622	0.00139832
2634	0.000838995
2646	0.000838995
2658	0.000838995
2670	0.000950861
2682	0.000391531
2694	0.00055933
2706	0.000894928
2718	0.00100679
2730	0.00100679
2742	0.000950861
2754	0.000950861
2766	0.000950861
2778	0.000950861
2790	0.00106273
2802	0.00145426
2814	0.00156612
2826	0.00145426
2838	0.00218139
2850	0.00156612
2862	0.00285258
2874	0.00441871
2886	0.00794249
2898	0.0115781
2910	0.00894928
2922	0.00906115
2934	0.0162206
2946	0.0274072
2958	0.0309309
2970	0.0247783
2982	0.0177867
2994	0.0161087
3006	0.0124171
3018	0.00581703
3030	0.00145426
3042	0.000894928
3054	0.000783062
3066	0.000783062
3078	0.000783062
3090	0.000279665
3102	0.000279665
3114	0.000335598
3126	0.000503397
3138	0.000391531
3150	0.000335598
3162	0.000335598
3174	0.000391531
3186	0.000335598
3198	0.000950861
3210	0.000503397
3222	0.000894928
3234	0.000783062
3246	0.000894928
3258	0.000783062
3270	0.000447464
3282	0.000447464
3294	0.000894928
3306	0.00055933
3318	0.000950861
3330	0.000894928
3342	0.00106273
3354	0.00100679
3366	0.00151019
3378	0.00206952
3390	0.00151019
3402	0.00145426
3414	0.00151019
3426	0.00206952
3438	0.00145426
3450	0.00151019
3462	0.00156612
3474	0.00190172
3486	0.00151019
3498	0.00156612
3510	0.00156612
3522	0.00151019
3534	0.00151019
3546	0.00162206
3558	0.00206952
3570	0.00162206
3582	0.00178986
3594	0.00218139
3606	0.00206952
3618	0.00324411
3630	0.00939674
3642	0.0313784
3654	0.059233
3666	0.0648263
3678	0.0415023
3690	0.0139273
3702	0.00497804
3714	0.00251699
3726	0.00223732
3738	0.00229325
3750	0.00251699
3762	0.00274072
3774	0.00246105
3786	0.00246105
3798	0.00246105
3810	0.00229325
3822	0.00251699
3834	0.00234919
3846	0.00268478
3858	0.00352378
3870	0.00335598
3882	0.00413904
3894	0.00369158
3906	0.00380344
3918	0.00363565
3930	0.00352378
3942	0.00307632
3954	0.00357971
3966	0.00357971
