Infrared Spectrum: Ethanol, 2,2,2-trifluoro-,
Formula: C2 H3 F3 O
CAS: 75-89-8
State: LIQUID (NEAT)
Class: COBLENTZ III
Instrument: BAIRD (GRATING)
Instrument parameters: NaCl PRISM
Path length: 0.003 CM
Resolution: 2
Origin: WYANDOTTE CHEMICALS CORP.
1/CM	TRANSMITTANCE
626	0.5441
635	0.5174
644	0.4499
653	0.3209
662	0.2344
671	0.3208
680	0.4024
689	0.4389
698	0.47
707	0.4946
716	0.5195
725	0.5471
734	0.5712
743	0.5929
752	0.6146
761	0.6359
770	0.6549
779	0.6733
788	0.6877
797	0.6936
806	0.6877
815	0.6
824	0.2059
833	0.1672
842	0.48
851	0.6248
860	0.7055
869	0.7369
878	0.768
887	0.7737
896	0.7667
905	0.7478
914	0.7018
923	0.5834
932	0.3087
941	0.0243
950	0.0216
959	0.1576
968	0.3144
977	0.4982
986	0.5996
995	0.6397
1004	0.6564
1013	0.6426
1022	0.5976
1031	0.5806
1040	0.5352
1049	0.427
1058	0.2246
1067	0.0501
1076	0.0266
1085	0.0143
1094	0.0146
1103	0.0171
1112	0.0463
1121	0.1112
1130	0.031
1139	0.0175
1148	0.0168
1157	0.0152
1166	0.0148
1175	0.0148
1184	0.0147
1193	0.0157
1202	0.0345
1211	0.0666
1220	0.1232
1229	0.2273
1238	0.2256
1247	0.1532
1256	0.0674
1265	0.0242
1274	0.0118
1283	0.0117
1292	0.0143
1301	0.0178
1310	0.041
1319	0.1781
1328	0.3008
1337	0.3864
1346	0.4589
1355	0.4607
1364	0.3776
1373	0.2958
1382	0.2757
1391	0.3203
1400	0.3243
1409	0.2429
1418	0.1544
1427	0.1449
1436	0.2131
1445	0.2866
1454	0.2965
1463	0.2353
1472	0.251
1481	0.3218
1490	0.4292
1499	0.4858
1508	0.5335
1517	0.6292
1526	0.6979
1535	0.7412
1544	0.768
1553	0.7946
1562	0.8138
1571	0.824
1580	0.8278
1589	0.8259
1598	0.8221
1607	0.817
1616	0.8105
1625	0.7893
1634	0.7602
1643	0.7324
1652	0.7311
1661	0.753
1670	0.7757
1679	0.8021
1688	0.8318
1697	0.8484
1706	0.8605
1715	0.8626
1724	0.8615
1733	0.8645
1742	0.8863
1751	0.9008
1760	0.9037
1769	0.8978
1778	0.8915
1787	0.8987
1796	0.9126
1805	0.9149
1814	0.9126
1823	0.9102
1832	0.9108
1841	0.9162
1850	0.9222
1859	0.9278
1868	0.9323
1877	0.9313
1886	0.9293
1895	0.9345
1904	0.9388
1913	0.9407
1922	0.94
1931	0.9348
1940	0.9266
1949	0.9198
1958	0.9137
1967	0.9113
1976	0.9121
1985	0.9167
1994	0.9223
2003	0.9283
2012	0.9326
2021	0.9325
2030	0.9319
2039	0.9314
2048	0.9304
2057	0.9284
2066	0.9231
2075	0.9126
2084	0.9011
2093	0.8933
2102	0.897
2111	0.9041
2120	0.9035
2129	0.9006
2138	0.8996
2147	0.9059
2156	0.9135
2165	0.9218
2174	0.9211
2183	0.9151
2192	0.9082
2201	0.9034
2210	0.9027
2219	0.9043
2228	0.9077
2237	0.9139
2246	0.9132
2255	0.9108
2264	0.9073
2273	0.9007
2282	0.8932
2291	0.8837
2300	0.875
2309	0.8676
2318	0.8637
2327	0.8639
2336	0.8662
2345	0.8689
2354	0.8715
2363	0.8713
2372	0.8692
2381	0.8653
2390	0.8608
2399	0.8573
2408	0.8553
2417	0.8556
2426	0.8566
2435	0.8591
2444	0.8622
2453	0.8652
2462	0.8679
2471	0.8686
2480	0.8651
2489	0.8602
2498	0.8546
2507	0.8485
2516	0.8423
2525	0.8359
2534	0.8295
2543	0.8231
2552	0.8166
2561	0.8117
2570	0.8103
2579	0.81
2588	0.8098
2597	0.8097
2606	0.8094
2615	0.8092
2624	0.809
2633	0.8089
2642	0.8088
2651	0.8082
2660	0.8073
2669	0.8052
2678	0.7999
2687	0.7882
2696	0.7702
2705	0.7496
2714	0.7377
2723	0.731
2732	0.7286
2741	0.7266
2750	0.7251
2759	0.7226
2768	0.7143
2777	0.7048
2786	0.6951
2795	0.6835
2804	0.6708
2813	0.6568
2822	0.6423
2831	0.6274
2840	0.6105
2849	0.5922
2858	0.5724
2867	0.5311
2876	0.5039
2885	0.4769
2894	0.4514
2903	0.4522
2912	0.4648
2921	0.4781
2930	0.4896
2939	0.4819
2948	0.4232
2957	0.3627
2966	0.3102
2975	0.3106
2984	0.3337
2993	0.3722
3002	0.4104
3011	0.4485
3020	0.4864
3029	0.5239
3038	0.5613
3047	0.5943
3056	0.5979
3065	0.591
3074	0.5629
3083	0.5349
3092	0.507
3101	0.4794
3110	0.4519
3119	0.4246
3128	0.3974
3137	0.3703
3146	0.3308
3155	0.2676
3164	0.2341
3173	0.2047
3182	0.1417
3191	0.0998
3200	0.0839
3209	0.0707
3218	0.0592
3227	0.0501
3236	0.0417
3245	0.0352
3254	0.03
3263	0.0258
3272	0.0229
3281	0.0203
3290	0.0191
3299	0.0179
3308	0.0168
3317	0.0163
3326	0.0159
3335	0.0155
3344	0.0159
3353	0.0169
3362	0.0184
3371	0.0201
3380	0.0219
3389	0.0242
3398	0.0267
3407	0.0295
3416	0.0324
3425	0.0362
3434	0.042
3443	0.0535
3452	0.07
3461	0.087
3470	0.1032
3479	0.1131
3488	0.1265
3497	0.142
3506	0.1625
3515	0.192
3524	0.2201
3533	0.248
3542	0.2758
3551	0.3034
3560	0.3308
3569	0.3582
3578	0.3854
3587	0.4125
3596	0.4394
3605	0.4723
3614	0.4978
3623	0.5132
3632	0.521
3641	0.5274
3650	0.5343
3659	0.5417
3668	0.5512
3677	0.5702
3686	0.5899
3695	0.6175
3704	0.6445
3713	0.6715
3722	0.6983
3731	0.725
3740	0.7516
3749	0.778
3758	0.8044
3767	0.8347
3776	0.8568
3785	0.8727
3794	0.9038
3803	0.9139
3812	0.9212
3821	0.9272
3830	0.932
3839	0.936
3848	0.9392
3857	0.942
3866	0.9442
3875	0.9463
3884	0.9485
3893	0.9502
3902	0.9514
3911	0.9526
3920	0.9538
3929	0.9547
3938	0.9557
3947	0.9569
3956	0.9587
3965	0.9607
3974	0.9624
3983	0.9638
3992	0.9654
