Infrared Spectrum: MALONONITRILE
Formula: C3 H2 N2
CAS: 109-77-3
State: SOLID (MULL, KEL-F OIL FOR 2-7.5 AND MINERAL OIL FOR 7.5-16 MICRONS)
Melting point: 30-32 C
Class: COBLENTZ
Instrument: Not specified, most likely a prism, grating, or hybrid spectrometer.
Sampling: TRANSMISSION
Resolution: 4
Origin: WYANDOTTE CHEMICALS CORP., WYANDOTTE, MICHIGAN, USA
MICROMETERS	TRANSMITTANCE
2.051	0.972
2.08975	0.978
2.1285	0.967
2.16725	0.974
2.206	0.935
2.24475	0.922
2.2835	0.915
2.32225	0.92
2.361	0.959
2.39975	0.954
2.4385	0.949
2.47725	0.935
2.516	0.899
2.55475	0.926
2.5935	0.925
2.63225	0.965
2.671	0.894
2.70975	0.816
2.7485	0.834
2.78725	0.831
2.826	0.849
2.86475	0.862
2.9035	0.878
2.94225	0.887
2.981	0.891
3.01975	0.879
3.0585	0.878
3.09725	0.871
3.136	0.86
3.17475	0.801
3.2135	0.844
3.25225	0.772
3.291	0.681
3.32975	0.509
3.3685	0.321
3.40725	0.357
3.446	0.599
3.48475	0.672
3.5235	0.758
3.56225	0.836
3.601	0.875
3.63975	0.902
3.6785	0.913
3.71725	0.92
3.756	0.913
3.79475	0.836
3.8335	0.85
3.87225	0.881
3.911	0.923
3.94975	0.918
3.9885	0.9
4.02725	0.913
4.066	0.922
4.10475	0.915
4.1435	0.902
4.18224	0.907
4.22099	0.891
4.25974	0.84
4.29849	0.871
4.33724	0.871
4.37599	0.839
4.41474	0.636
4.45349	0.48
4.49224	0.595
4.53099	0.834
4.56974	0.87
4.60849	0.891
4.64724	0.899
4.68599	0.917
4.72474	0.922
4.76349	0.92
4.80224	0.93
4.84099	0.936
4.87974	0.933
4.91849	0.935
4.95724	0.938
4.99599	0.941
5.03474	0.939
5.07349	0.931
5.11224	0.936
5.15099	0.936
5.18974	0.931
5.22849	0.933
5.26724	0.931
5.30599	0.925
5.34474	0.93
5.38349	0.918
5.42224	0.928
5.46099	0.935
5.49974	0.922
5.53849	0.897
5.57724	0.868
5.61599	0.9
5.65474	0.868
5.69349	0.847
5.73224	0.823
5.77099	0.824
5.80974	0.821
5.84849	0.855
5.88724	0.883
5.92599	0.858
5.96474	0.84
6.00349	0.845
6.04224	0.818
6.08099	0.8
6.11974	0.774
6.15849	0.797
6.19724	0.839
6.23599	0.868
6.27474	0.862
6.31349	0.875
6.35224	0.826
6.39099	0.808
6.42974	0.81
6.46849	0.814
6.50724	0.85
6.54599	0.839
6.58474	0.837
6.62349	0.847
6.66224	0.827
6.70099	0.826
6.73974	0.784
6.77849	0.774
6.81724	0.758
6.85599	0.777
6.89474	0.769
6.93349	0.741
6.97224	0.728
7.01099	0.683
7.04974	0.625
7.08849	0.524
7.12724	0.366
7.16599	0.293
7.20474	0.297
7.24349	0.405
7.28224	0.538
7.32099	0.592
7.35974	0.62
7.39849	0.641
7.43724	0.649
7.47599	0.655
7.51474	0.587
7.55349	0.378
7.59224	0.503
7.63099	0.576
7.66974	0.655
7.70849	0.676
7.74724	0.675
7.78599	0.711
7.82474	0.678
7.86349	0.67
7.90224	0.678
7.94099	0.626
7.97974	0.727
8.01849	0.733
8.05724	0.733
8.09599	0.756
8.13474	0.767
8.17349	0.733
8.21224	0.563
8.25099	0.746
8.28974	0.837
8.32849	0.865
8.36723	0.871
8.40598	0.876
8.44473	0.879
8.48348	0.876
8.52223	0.883
8.56098	0.871
8.59973	0.849
8.63848	0.844
8.67723	0.853
8.71598	0.865
8.75473	0.876
8.79348	0.887
8.83223	0.889
8.87098	0.889
8.90973	0.899
8.94848	0.905
8.98723	0.905
9.02598	0.902
9.06473	0.913
9.10348	0.905
9.14223	0.912
9.18098	0.91
9.21973	0.907
9.25848	0.9
9.29723	0.892
9.33598	0.892
9.37473	0.891
9.41348	0.884
9.45223	0.883
9.49098	0.876
9.52973	0.886
9.56848	0.887
9.60723	0.899
9.64598	0.897
9.68473	0.892
9.72348	0.887
9.76223	0.876
9.80098	0.879
9.83973	0.879
9.87848	0.881
9.91723	0.836
9.95598	0.737
9.99473	0.579
10.0335	0.436
10.0722	0.375
10.111	0.342
10.1497	0.316
10.1885	0.288
10.2272	0.456
10.266	0.563
10.3047	0.608
10.3435	0.657
10.3822	0.689
10.421	0.702
10.4597	0.712
10.4985	0.694
10.5372	0.652
10.576	0.582
10.6147	0.496
10.6535	0.422
10.6922	0.301
10.731	0.277
10.7697	0.293
10.8085	0.256
10.8472	0.319
10.886	0.418
10.9247	0.495
10.9635	0.524
11.0022	0.443
11.041	0.375
11.0797	0.43
11.1185	0.446
11.1572	0.362
11.196	0.253
11.2347	0.162
11.2735	0.162
11.3122	0.42
11.351	0.605
11.3897	0.675
11.4285	0.699
11.4672	0.698
11.506	0.722
11.5447	0.767
11.5835	0.798
11.6222	0.803
11.661	0.805
11.6997	0.811
11.7385	0.81
11.7772	0.811
11.816	0.803
11.8547	0.795
11.8935	0.803
11.9322	0.827
11.971	0.845
12.0097	0.85
12.0485	0.853
12.0872	0.853
12.126	0.858
12.1647	0.858
12.2035	0.865
12.2422	0.865
12.281	0.866
12.3197	0.868
12.3585	0.871
12.3972	0.881
12.436	0.887
12.4747	0.891
12.5135	0.899
12.5522	0.896
12.591	0.9
12.6297	0.902
12.6685	0.912
12.7072	0.91
12.746	0.918
12.7847	0.918
12.8235	0.917
12.8622	0.915
12.901	0.912
12.9397	0.909
12.9785	0.91
13.0172	0.91
13.056	0.909
13.0947	0.905
13.1335	0.904
13.1722	0.9
13.211	0.896
13.2497	0.892
13.2885	0.884
13.3272	0.876
13.366	0.862
13.4047	0.827
13.4435	0.772
13.4822	0.715
13.521	0.733
13.5597	0.772
13.5985	0.78
13.6372	0.741
13.676	0.681
13.7147	0.637
13.7535	0.711
13.7922	0.795
13.831	0.831
13.8697	0.837
13.9085	0.818
13.9472	0.803
13.986	0.775
14.0247	0.702
14.0635	0.626
14.1022	0.564
14.141	0.556
14.1797	0.59
14.2185	0.642
14.2572	0.694
14.296	0.735
14.3347	0.764
14.3735	0.787
14.4122	0.801
14.451	0.813
14.4897	0.821
14.5285	0.819
14.5672	0.818
14.606	0.811
14.6447	0.793
14.6835	0.767
14.7222	0.748
14.761	0.73
14.7997	0.725
14.8385	0.724
14.8772	0.746
14.916	0.767
14.9547	0.793
14.9935	0.81
15.0322	0.811
15.071	0.819
15.1097	0.85
15.1485	0.876
15.1872	0.879
15.226	0.876
15.2647	0.876
15.3035	0.873
15.3422	0.871
15.381	0.868
15.4197	0.866
15.4585	0.849
15.4972	0.849
15.536	0.853
15.5747	0.852
15.6135	0.844
15.6522	0.842
15.691	0.847
15.7297	0.84
15.7685	0.847
15.8072	0.832
15.846	0.831
15.8847	0.823
15.9235	0.826
15.9622	0.814
16.001	0.8
