Infrared Spectrum: MALONONITRILE
Formula: C3 H2 N2
CAS: 109-77-3
State: LIQUID
Melting point: 30-32 C
Class: COBLENTZ
Instrument: Not specified, most likely a prism, grating, or hybrid spectrometer.
Sampling: TRANSMISSION
Path length: 0.0015 CM
Resolution: 4
Origin: WYANDOTTE CHEMICALS CORP., WYANDOTTE, MICHIGAN, USA
MICROMETERS	TRANSMITTANCE
2.052	0.962
2.09071	0.972
2.12942	0.967
2.16813	0.967
2.20683	0.904
2.24554	0.873
2.28425	0.891
2.32296	0.847
2.36167	0.938
2.40038	0.941
2.43909	0.938
2.47779	0.933
2.5165	0.904
2.55521	0.9
2.59392	0.939
2.63263	0.946
2.67134	0.93
2.71005	0.852
2.74875	0.871
2.78746	0.875
2.82617	0.884
2.86488	0.909
2.90359	0.918
2.9423	0.918
2.98101	0.917
3.01972	0.892
3.05842	0.85
3.09713	0.811
3.13584	0.849
3.17455	0.762
3.21326	0.775
3.25197	0.688
3.29068	0.568
3.32938	0.251
3.36809	0.103
3.4068	0.142
3.44551	0.37
3.48422	0.576
3.52293	0.672
3.56164	0.754
3.60034	0.79
3.63905	0.862
3.67776	0.873
3.71647	0.873
3.75518	0.866
3.79389	0.748
3.8326	0.762
3.8713	0.808
3.91001	0.868
3.94872	0.845
3.98743	0.819
4.02614	0.875
4.06485	0.904
4.10356	0.894
4.14226	0.883
4.18097	0.899
4.21968	0.896
4.25839	0.868
4.2971	0.87
4.33581	0.871
4.37452	0.801
4.41322	0.534
4.45193	0.342
4.49064	0.355
4.52935	0.831
4.56806	0.875
4.60677	0.889
4.64548	0.91
4.68419	0.92
4.72289	0.917
4.7616	0.926
4.80031	0.931
4.83902	0.939
4.87773	0.935
4.91644	0.936
4.95515	0.936
4.99385	0.936
5.03256	0.935
5.07127	0.922
5.10998	0.93
5.14869	0.933
5.1874	0.925
5.22611	0.928
5.26481	0.931
5.30352	0.925
5.34223	0.928
5.38094	0.917
5.41965	0.93
5.45836	0.933
5.49707	0.917
5.53577	0.897
5.57448	0.87
5.61319	0.875
5.6519	0.875
5.69061	0.849
5.72932	0.836
5.76803	0.821
5.80673	0.834
5.84544	0.871
5.88415	0.873
5.92286	0.873
5.96157	0.865
6.00028	0.879
6.03899	0.871
6.07769	0.849
6.1164	0.823
6.15511	0.803
6.19382	0.845
6.23253	0.873
6.27124	0.876
6.30995	0.862
6.34866	0.814
6.38736	0.798
6.42607	0.814
6.46478	0.829
6.50349	0.857
6.5422	0.855
6.58091	0.85
6.61962	0.845
6.65832	0.826
6.69703	0.811
6.73574	0.777
6.77445	0.771
6.81316	0.751
6.85187	0.75
6.89058	0.735
6.92928	0.709
6.96799	0.681
7.0067	0.62
7.04541	0.521
7.08412	0.352
7.12283	0.133
7.16154	0.108
7.20024	0.102
7.23895	0.201
7.27766	0.386
7.31637	0.511
7.35508	0.592
7.39379	0.625
7.4325	0.652
7.4712	0.667
7.50991	0.652
7.54862	0.586
7.58733	0.566
7.62604	0.639
7.66475	0.689
7.70346	0.709
7.74216	0.699
7.78087	0.676
7.81958	0.675
7.85829	0.657
7.897	0.639
7.93571	0.62
7.97442	0.693
8.01312	0.72
8.05183	0.714
8.09054	0.691
8.12925	0.663
8.16796	0.621
8.20667	0.623
8.24538	0.686
8.28409	0.753
8.32279	0.792
8.3615	0.821
8.40021	0.836
8.43892	0.842
8.47763	0.857
8.51634	0.86
8.55505	0.862
8.59375	0.866
8.63246	0.873
8.67117	0.883
8.70988	0.894
8.74859	0.905
8.7873	0.918
8.82601	0.918
8.86471	0.923
8.90342	0.925
8.94213	0.915
8.98084	0.909
9.01955	0.913
9.05826	0.915
9.09697	0.913
9.13567	0.907
9.17438	0.902
9.21309	0.897
9.2518	0.891
9.29051	0.889
9.32922	0.881
9.36793	0.878
9.40663	0.866
9.44534	0.857
9.48405	0.853
9.52276	0.86
9.56147	0.857
9.60018	0.85
9.63889	0.849
9.67759	0.832
9.7163	0.827
9.75501	0.823
9.79372	0.819
9.83243	0.805
9.87114	0.797
9.90985	0.775
9.94856	0.738
9.98726	0.689
10.026	0.564
10.0647	0.386
10.1034	0.214
10.1421	0.133
10.1808	0.139
10.2195	0.212
10.2582	0.381
10.2969	0.53
10.3356	0.618
10.3743	0.652
10.4131	0.67
10.4518	0.66
10.4905	0.634
10.5292	0.586
10.5679	0.521
10.6066	0.425
10.6453	0.316
10.684	0.23
10.7227	0.204
10.7614	0.217
10.8001	0.271
10.8389	0.323
10.8776	0.379
10.9163	0.451
10.955	0.482
10.9937	0.472
11.0324	0.438
11.0711	0.435
11.1098	0.426
11.1485	0.334
11.1872	0.181
11.2259	0.12
11.2646	0.147
11.3034	0.324
11.3421	0.529
11.3808	0.636
11.4195	0.675
11.4582	0.709
11.4969	0.728
11.5356	0.758
11.5743	0.775
11.613	0.792
11.6517	0.798
11.6904	0.801
11.7292	0.8
11.7679	0.808
11.8066	0.813
11.8453	0.821
11.884	0.831
11.9227	0.837
11.9614	0.839
12.0001	0.839
12.0388	0.85
12.0775	0.855
12.1162	0.849
12.1549	0.86
12.1937	0.862
12.2324	0.865
12.2711	0.858
12.3098	0.87
12.3485	0.871
12.3872	0.875
12.4259	0.878
12.4646	0.889
12.5033	0.886
12.542	0.889
12.5807	0.889
12.6194	0.891
12.6582	0.896
12.6969	0.892
12.7356	0.899
12.7743	0.896
12.813	0.894
12.8517	0.896
12.8904	0.894
12.9291	0.9
12.9678	0.889
13.0065	0.889
13.0452	0.889
13.084	0.883
13.1227	0.873
13.1614	0.871
13.2001	0.871
13.2388	0.863
13.2775	0.857
13.3162	0.852
13.3549	0.847
13.3936	0.834
13.4323	0.827
13.471	0.806
13.5097	0.788
13.5485	0.766
13.5872	0.74
13.6259	0.707
13.6646	0.693
13.7033	0.68
13.742	0.688
13.7807	0.72
13.8194	0.75
13.8581	0.766
13.8968	0.774
13.9355	0.777
13.9742	0.772
14.013	0.759
14.0517	0.737
14.0904	0.707
14.1291	0.675
14.1678	0.629
14.2065	0.595
14.2452	0.579
14.2839	0.582
14.3226	0.599
14.3613	0.626
14.4	0.657
14.4388	0.686
14.4775	0.717
14.5162	0.733
14.5549	0.743
14.5936	0.748
14.6323	0.748
14.671	0.753
14.7097	0.75
14.7484	0.75
14.7871	0.743
14.8258	0.738
14.8645	0.737
14.9033	0.74
14.942	0.733
14.9807	0.732
15.0194	0.72
15.0581	0.715
15.0968	0.732
15.1355	0.756
15.1742	0.764
15.2129	0.771
15.2516	0.762
15.2903	0.772
15.3291	0.769
15.3678	0.771
15.4065	0.764
15.4452	0.767
15.4839	0.758
15.5226	0.756
15.5613	0.761
15.6	0.759
15.6387	0.756
15.6774	0.746
15.7161	0.75
15.7548	0.741
