Infrared Spectrum: MALONONITRILE
Formula: C3 H2 N2
CAS: 109-77-3
State: LIQUID (NEAT)
Class: COBLENTZ III
Instrument: BAIRD (PRISM)
Instrument parameters: NaCl PRISM
Sampling: TRANSMISSION
Path length: FILM
Origin: DOW CHEMICAL COMPANY
1/CM	TRANSMITTANCE
4000	0.9364
3991	0.9361
3982	0.9356
3973	0.9345
3964	0.9333
3955	0.9312
3946	0.9287
3937	0.9263
3928	0.9242
3919	0.922
3910	0.9207
3901	0.9196
3892	0.9185
3883	0.9174
3874	0.9164
3865	0.9162
3856	0.9168
3847	0.9181
3838	0.9223
3829	0.9289
3820	0.934
3811	0.9363
3802	0.9375
3793	0.9387
3784	0.9384
3775	0.9371
3766	0.9346
3757	0.9316
3748	0.9289
3739	0.928
3730	0.9274
3721	0.9268
3712	0.9267
3703	0.9277
3694	0.929
3685	0.9306
3676	0.9314
3667	0.9203
3658	0.9075
3649	0.8974
3640	0.8892
3631	0.8838
3622	0.879
3613	0.8764
3604	0.8756
3595	0.877
3586	0.8793
3577	0.8839
3568	0.8895
3559	0.8943
3550	0.8978
3541	0.9011
3532	0.9013
3523	0.9016
3514	0.9023
3505	0.9046
3496	0.9074
3487	0.9104
3478	0.9137
3469	0.9171
3460	0.9204
3451	0.9236
3442	0.9268
3433	0.9288
3424	0.9301
3415	0.9316
3406	0.9325
3397	0.933
3388	0.9333
3379	0.9337
3370	0.9336
3361	0.9332
3352	0.9325
3343	0.9312
3334	0.9298
3325	0.9283
3316	0.9268
3307	0.9252
3298	0.9235
3289	0.922
3280	0.9211
3271	0.9202
3262	0.9195
3253	0.9186
3244	0.9178
3235	0.9174
3226	0.9168
3217	0.9171
3208	0.9175
3199	0.9177
3190	0.9173
3181	0.9167
3172	0.9143
3163	0.9117
3154	0.9092
3145	0.9081
3136	0.9071
3127	0.9071
3118	0.9077
3109	0.9083
3100	0.9071
3091	0.905
3082	0.9015
3073	0.8978
3064	0.8941
3055	0.8903
3046	0.8855
3037	0.8805
3028	0.8745
3019	0.8677
3010	0.8597
3001	0.8505
2992	0.8399
2983	0.8267
2974	0.8043
2965	0.7137
2956	0.6193
2947	0.5244
2938	0.4289
2929	0.4008
2920	0.4384
2911	0.5214
2902	0.6048
2893	0.6887
2884	0.7564
2875	0.7901
2866	0.8296
2857	0.8573
2848	0.8723
2839	0.8832
2830	0.8935
2821	0.9031
2812	0.911
2803	0.917
2794	0.9213
2785	0.9233
2776	0.9241
2767	0.926
2758	0.9305
2749	0.9362
2740	0.9412
2731	0.9439
2722	0.9459
2713	0.9471
2704	0.9483
2695	0.9495
2686	0.9517
2677	0.9549
2668	0.9577
2659	0.9581
2650	0.9575
2641	0.9517
2632	0.9435
2623	0.9366
2614	0.933
2605	0.9323
2596	0.9324
2587	0.9345
2578	0.9382
2569	0.9431
2560	0.9499
2551	0.9539
2542	0.9571
2533	0.9577
2524	0.9563
2515	0.9559
2506	0.9565
2497	0.9586
2488	0.9616
2479	0.9648
2470	0.9681
2461	0.9704
2452	0.9721
2443	0.9728
2434	0.9737
2425	0.9742
2416	0.9744
2407	0.9737
2398	0.9725
2389	0.9639
2380	0.9425
2371	0.9233
2362	0.9149
2353	0.915
2344	0.9207
2335	0.9299
2326	0.9389
2317	0.9455
2308	0.9478
2299	0.9391
2290	0.876
2281	0.811
2272	0.7456
2263	0.7235
2254	0.8031
2245	0.8887
2236	0.9521
2227	0.9644
2218	0.9689
2209	0.9717
2200	0.9743
2191	0.9761
2182	0.9778
2173	0.9796
2164	0.9815
2155	0.9833
2146	0.9843
2137	0.985
2128	0.9858
2119	0.9865
2110	0.9873
2101	0.9875
2092	0.9878
2083	0.9883
2074	0.9889
2065	0.9894
2056	0.9898
2047	0.9902
2038	0.9903
2029	0.9903
2020	0.9903
2011	0.9902
2002	0.9901
1993	0.99
1984	0.9899
1975	0.9896
1966	0.989
1957	0.9882
1948	0.9874
1939	0.9866
1930	0.9862
1921	0.9859
1912	0.9859
1903	0.9859
1894	0.9862
1885	0.9865
1876	0.9868
1867	0.9849
1858	0.9846
1849	0.9867
1840	0.9875
1831	0.9866
1822	0.9863
1813	0.9858
1804	0.9814
1795	0.9742
1786	0.9701
1777	0.9731
1768	0.9694
1759	0.9668
1750	0.9512
1741	0.9378
1732	0.9371
1723	0.9487
1714	0.9511
1705	0.9557
1696	0.9605
1687	0.9632
1678	0.9654
1669	0.9601
1660	0.9635
1651	0.9462
1642	0.9415
1633	0.9384
1624	0.9212
1615	0.9071
1606	0.9171
1597	0.9295
1588	0.9457
1579	0.9483
1570	0.9453
1561	0.9437
1552	0.9374
1543	0.9377
1534	0.9425
1525	0.9485
1516	0.9523
1507	0.9551
1498	0.9546
1489	0.9474
1480	0.9381
1471	0.9275
1462	0.9209
1453	0.9189
1444	0.9128
1435	0.8957
1426	0.8787
1417	0.8508
1408	0.7567
1399	0.5751
1390	0.3084
1381	0.4133
1372	0.7758
1363	0.8345
1354	0.8683
1345	0.8797
1336	0.8885
1327	0.8881
1318	0.8618
1309	0.8734
1300	0.8978
1291	0.9051
1282	0.8968
1273	0.8897
1264	0.8678
1255	0.8575
1246	0.8897
1237	0.8939
1228	0.8816
1219	0.8633
1210	0.8825
1201	0.9002
1192	0.9104
1183	0.9148
1174	0.9153
1165	0.914
1156	0.9116
1147	0.91
1138	0.9094
1129	0.9085
1120	0.907
1111	0.9035
1102	0.8957
1093	0.89
1084	0.889
1075	0.8885
1066	0.8875
1057	0.8871
1048	0.887
1039	0.8852
1030	0.8825
1021	0.8771
1012	0.8768
1003	0.874
994	0.8186
985	0.5944
976	0.5986
967	0.8324
958	0.8656
949	0.8456
940	0.7306
931	0.6447
922	0.7275
913	0.7974
904	0.7858
895	0.6401
886	0.6387
877	0.8577
868	0.8873
859	0.9041
850	0.9087
841	0.9135
832	0.9158
823	0.9067
814	0.8931
805	0.8831
796	0.8771
787	0.8896
778	0.9073
769	0.9116
760	0.9067
751	0.8996
742	0.8804
733	0.8483
724	0.8454
715	0.8383
706	0.7815
697	0.7812
688	0.7933
679	0.7793
670	0.7608
661	0.7467
652	0.7395
643	0.7267
634	0.7141
