Infrared Spectrum: Acetamide, 2-methoxy-,
Formula: C 3 H 7 N O 2
CAS: 16332-06-2
State: gas
Origin: Sadtler Research Labs Under US-EPA Contract
1/CM	ABSORBANCE
450	0.0500589
462	0.0551932
474	0.0587586
486	0.0504868
498	0.0295219
510	0.0225336
522	0.0164011
534	0.0242451
546	0.0382216
558	0.0454951
570	0.0425002
582	0.0298072
594	0.0176846
606	0.017542
618	0.0172568
630	0.0195387
642	0.0173994
654	0.00855708
666	0.000142618
678	0.00527687
690	0.00955541
702	0.0136913
714	0.019396
726	0.0263843
738	0.0326595
750	0.0490606
762	0.0648912
774	0.0660321
786	0.0647486
798	0.0561915
810	0.0589012
822	0.0718795
834	0.0859987
846	0.0949836
858	0.0924165
870	0.082148
882	0.0728778
894	0.0725926
906	0.0788678
918	0.0875675
930	0.0932722
942	0.090705
954	0.088851
966	0.0929869
978	0.0911329
990	0.086997
1002	0.0633224
1014	0.0487754
1026	0.042928
1038	0.039933
1050	0.042928
1062	0.050772
1074	0.0724499
1086	0.120084
1098	0.241024
1110	0.452384
1122	0.583308
1134	0.492175
1146	0.230043
1158	0.12422
1170	0.108104
1182	0.145043
1194	0.212643
1206	0.199808
1218	0.128499
1230	0.0600422
1242	0.0454951
1254	0.0443542
1266	0.0514851
1278	0.0581881
1290	0.0650338
1302	0.0835741
1314	0.135344
1326	0.230613
1338	0.252149
1350	0.246729
1362	0.205513
1374	0.209506
1386	0.180982
1398	0.131636
1410	0.0677435
1422	0.0442116
1434	0.0460656
1446	0.0590439
1458	0.0640355
1470	0.0539096
1482	0.0352266
1494	0.0221058
1506	0.0148323
1518	0.0165437
1530	0.0303776
1542	0.077299
1554	0.203944
1566	0.342854
1578	0.390488
1590	0.290798
1602	0.151318
1614	0.0703107
1626	0.0406461
1638	0.0360824
1650	0.039933
1662	0.050772
1674	0.0673157
1686	0.098549
1698	0.16016
1710	0.326025
1722	0.728778
1734	1.30823
1746	1.41391
1758	0.950549
1770	0.339716
1782	0.110386
1794	0.0454951
1806	0.0288088
1818	0.0196813
1830	0.012693
1842	0.00812923
1854	0.00584734
1866	0.00427854
1878	0.00328021
1890	0.00285236
1902	0.00285236
1914	0.00270974
1926	0.00370807
1938	0.00499163
1950	0.00527687
1962	0.00484901
1974	0.0039933
1986	0.0031376
1998	0.00342283
2010	0.0039933
2022	0.00484901
2034	0.00656043
2046	0.00641781
2058	0.00670305
2070	0.00741614
2082	0.00898493
2094	0.0104111
2106	0.00969802
2118	0.00812923
2130	0.00670305
2142	0.00570472
2154	0.00527687
2166	0.0055621
2178	0.00584734
2190	0.00584734
2202	0.00613257
2214	0.00613257
2226	0.00641781
2238	0.00741614
2250	0.00741614
2262	0.00684566
2274	0.00641781
2286	0.00627519
2298	0.0031376
2310	0
2322	0.000142618
2334	0.00071309
2346	0.000142618
2358	0.00128356
2370	0.00285236
2382	0.00427854
2394	0.00456378
2406	0.00484901
2418	0.00527687
2430	0.00527687
2442	0.0055621
2454	0.00541948
2466	0.00499163
2478	0.00456378
2490	0.00442116
2502	0.00413592
2514	0.00413592
2526	0.00427854
2538	0.00470639
2550	0.00442116
2562	0.00513425
2574	0.00527687
2586	0.00598996
2598	0.00598996
2610	0.00584734
2622	0.0055621
2634	0.0055621
2646	0.00541948
2658	0.00613257
2670	0.00670305
2682	0.00627519
2694	0.00641781
2706	0.00670305
2718	0.00613257
2730	0.00684566
2742	0.00755875
2754	0.00969802
2766	0.012693
2778	0.0161158
2790	0.0216779
2802	0.0339431
2814	0.0611831
2826	0.119942
2838	0.14162
2850	0.134489
2862	0.0975507
2874	0.101401
2886	0.124506
2898	0.16016
2910	0.194103
2922	0.218919
2934	0.240026
2946	0.218776
2958	0.158876
2970	0.105252
2982	0.0928443
2994	0.116947
3006	0.105252
3018	0.0703107
3030	0.0333726
3042	0.0233894
3054	0.019396
3066	0.0181125
3078	0.0159732
3090	0.0125504
3102	0.00998326
3114	0.00770137
3126	0.00627519
3138	0.0055621
3150	0.00427854
3162	0.00342283
3174	0.00213927
3186	0.00185403
3198	0.00185403
3210	0.00142618
3222	0.00213927
3234	0.00185403
3246	0.00185403
3258	0.00228189
3270	0.00270974
3282	0.00285236
3294	0.00356545
3306	0.0039933
3318	0.00484901
3330	0.0039933
3342	0.0039933
3354	0.00427854
3366	0.00584734
3378	0.00998326
3390	0.022391
3402	0.0473492
3414	0.088851
3426	0.128214
3438	0.113524
3450	0.0837168
3462	0.0357971
3474	0.0191108
3486	0.0179699
3498	0.0279531
3510	0.0460656
3522	0.0884232
3534	0.147895
3546	0.240311
3558	0.209078
3570	0.124791
3582	0.0189682
3594	0.00613257
3606	0.00342283
3618	0.00171142
3630	0.00185403
3642	0.00199665
3654	0.00128356
3666	0.00256712
3678	0.00128356
3690	0.00213927
3702	0.00270974
3714	0.00185403
3726	0.00270974
3738	0.00228189
3750	0.00114094
3762	0.00256712
3774	0.00413592
3786	0.00427854
3798	0.00370807
3810	0.0039933
3822	0.00285236
3834	0.0031376
3846	0.00413592
3858	0.00328021
3870	0.00299498
3882	0.00242451
3894	0.00370807
3906	0.00385069
3918	0.00328021
3930	0.00342283
3942	0.00328021
3954	0.00484901
3966	0.00456378
