Infrared Spectrum: 2-Methoxyacetamide
Formula: C3 H7 N O2
CAS: 16332-06-2
State: SOLID (SPLIT MULL)
Melting point: 96 C
Class: COBLENTZ II
Instrument: DOW KBr FOREPRISM-GRATING
Instrument parameters: BLAZED AT 3.5, 12.0, 20.0 MICRON AND CHANGED AT 5.0, 7.5, 14.9 MICRON
Sampling: TRANSMISSION
Resolution: 2
Origin: DOW CHEMICAL COMPANY
1/CM	TRANSMITTANCE
3794	0.8814
3785	0.8968
3776	0.8898
3767	0.8883
3758	0.8883
3749	0.898
3740	0.9036
3731	0.8997
3722	0.8978
3713	0.8975
3704	0.8968
3695	0.8975
3686	0.9016
3677	0.9038
3668	0.9032
3659	0.9038
3650	0.9047
3641	0.9071
3632	0.9098
3623	0.9128
3614	0.9157
3605	0.9178
3596	0.9202
3587	0.9225
3578	0.9248
3569	0.9268
3560	0.927
3551	0.9283
3542	0.9306
3533	0.9331
3524	0.9352
3515	0.9357
3506	0.9333
3497	0.9306
3488	0.9249
3479	0.9152
3470	0.8983
3461	0.8685
3452	0.8171
3443	0.7761
3434	0.7182
3425	0.624
3416	0.4044
3407	0.2316
3398	0.0654
3389	0.0598
3380	0.0857
3371	0.3252
3362	0.3654
3353	0.4
3344	0.4402
3335	0.4791
3326	0.4916
3317	0.4938
3308	0.4808
3299	0.4577
3290	0.4547
3281	0.4512
3272	0.4472
3263	0.4357
3254	0.3754
3245	0.3184
3236	0.2775
3227	0.2348
3218	0.2044
3209	0.1836
3200	0.1779
3191	0.176
3182	0.1994
3173	0.2415
3164	0.2924
3155	0.328
3146	0.3622
3137	0.3966
3128	0.426
3119	0.4484
3110	0.4687
3101	0.4887
3092	0.5076
3083	0.5265
3074	0.5485
3065	0.5738
3056	0.603
3047	0.6281
3038	0.6425
3029	0.6568
3020	0.675
3011	0.7007
3002	0.7091
2993	0.6034
2984	0.4589
2975	0.6686
2966	0.6884
2957	0.6619
2948	0.611
2939	0.5714
2930	0.6018
2921	0.6394
2912	0.6618
2903	0.6634
2894	0.6316
2885	0.6425
2876	0.684
2867	0.7168
2858	0.7399
2849	0.7348
2840	0.7139
2831	0.6131
2822	0.5782
2813	0.7038
2804	0.7461
2795	0.7633
2786	0.7662
2777	0.7601
2768	0.766
2759	0.7815
2750	0.7946
2741	0.8078
2732	0.8191
2723	0.8275
2714	0.833
2705	0.8347
2696	0.8299
2687	0.8368
2678	0.8441
2669	0.8496
2660	0.8542
2651	0.8585
2642	0.8623
2633	0.8649
2624	0.8668
2615	0.8688
2606	0.8709
2597	0.8725
2588	0.8728
2579	0.8733
2570	0.8732
2561	0.873
2552	0.8736
2543	0.874
2534	0.8737
2525	0.8744
2516	0.8759
2507	0.8775
2498	0.8793
2489	0.88
2480	0.8806
2471	0.8817
2462	0.8828
2453	0.8839
2444	0.8849
2435	0.8855
2426	0.8856
2417	0.8858
2408	0.886
2399	0.8865
2390	0.8867
2381	0.8875
2372	0.8924
2363	0.8971
2354	0.8933
2345	0.8901
2336	0.8873
2327	0.8845
2318	0.8823
2309	0.8798
2300	0.8785
2291	0.8807
2282	0.8846
2273	0.8886
2264	0.8928
2255	0.896
2246	0.8992
2237	0.9025
2228	0.9056
2219	0.9081
2210	0.9099
2201	0.9109
2192	0.9103
2183	0.9048
2174	0.9068
2165	0.9125
2156	0.9174
2147	0.9209
2138	0.9254
2129	0.9268
2120	0.9282
2111	0.9281
2102	0.9186
2093	0.8995
2084	0.8967
2075	0.9136
2066	0.922
2057	0.9281
2048	0.9324
2039	0.9351
2030	0.9375
2021	0.9395
2012	0.9402
2003	0.9374
1994	0.9355
1985	0.9428
1976	0.9473
1967	0.9503
1958	0.9516
1949	0.9517
1940	0.9516
1931	0.9513
1922	0.9501
1913	0.9486
1904	0.947
1895	0.945
1886	0.945
1877	0.9444
1868	0.9415
1859	0.9387
1850	0.9356
1841	0.9345
1832	0.9302
1823	0.9244
1814	0.9139
1805	0.897
1796	0.8942
1787	0.8934
1778	0.8886
1769	0.8788
1760	0.8641
1751	0.8442
1742	0.8094
1733	0.7824
1724	0.7507
1715	0.7108
1706	0.6591
1697	0.591
1688	0.5086
1679	0.4267
1670	0.3342
1661	0.192
1652	0.1079
1643	0.0309
1634	0.0175
1625	0.0384
1616	0.0936
1607	0.19
1598	0.2914
1589	0.3372
1580	0.3906
1571	0.4379
1562	0.491
1553	0.5609
1544	0.6038
1535	0.6241
1526	0.6369
1517	0.6421
1508	0.6411
1499	0.6335
1490	0.6312
1481	0.6133
1472	0.5898
1463	0.5737
1454	0.3362
1445	0.4044
1436	0.211
1427	0.2244
1418	0.4342
1409	0.475
1400	0.4678
1391	0.4373
1382	0.4387
1373	0.4894
1364	0.4895
1355	0.3009
1346	0.4115
1337	0.4962
1328	0.5396
1319	0.5739
1310	0.6009
1301	0.6193
1292	0.638
1283	0.6611
1274	0.6914
1265	0.716
1256	0.7378
1247	0.6662
1238	0.7901
1229	0.8118
1220	0.7131
1211	0.3891
1202	0.0882
1193	0.5889
1184	0.6896
1175	0.7271
1166	0.6915
1157	0.7222
1148	0.6736
1139	0.5617
1130	0.3706
1121	0.0381
1112	0.0116
1103	0.174
1094	0.1421
1085	0.5305
1076	0.6324
1067	0.7061
1058	0.7674
1049	0.7971
1040	0.8188
1031	0.835
1022	0.8295
1013	0.8568
1004	0.8703
995	0.8475
986	0.3844
977	0.1549
968	0.628
959	0.7742
950	0.8235
941	0.846
932	0.8578
923	0.863
914	0.8178
905	0.5874
896	0.7631
887	0.824
878	0.8453
869	0.8546
860	0.849
851	0.8305
842	0.8011
833	0.7624
824	0.7036
815	0.6168
806	0.5309
797	0.536
788	0.6168
779	0.6739
770	0.6835
761	0.6383
752	0.5494
743	0.4712
734	0.3497
725	0.2793
716	0.325
707	0.5065
698	0.6556
689	0.7615
680	0.8221
671	0.8634
662	0.8894
653	0.9047
644	0.9146
635	0.9223
626	0.928
617	0.9184
608	0.7521
599	0.6817
590	0.5676
581	0.8364
572	0.7428
563	0.9002
554	0.9192
545	0.9256
536	0.9223
527	0.9107
518	0.8905
509	0.8475
500	0.5033
491	0.3742
482	0.7011
473	0.8171
464	0.86
455	0.8708
