Infrared Spectrum: p-Dioxin, 2,3-dihydro-
Formula: C4 H6 O2
CAS: 543-75-9
State: SOLUTION (10% CCl4 FOR 2.6-7.5, 10% CS2 FOR 7.5-22 MICRON)
Class: COBLENTZ III
Instrument: DOW KBr FOREPRISM-GRATING
Instrument parameters: BLAZED AT 3.5, 12.0, 20.0 MICRON AND CHANGED AT 5.0, 7.5, 14.9 MICRON
Sampling: TRANSMISSION
Path length: 0.010 CM, 0.011 CM
Resolution: 2
Origin: DOW CHEMICAL COMPANY
1/CM	TRANSMITTANCE
449	0.8964
458	0.9073
467	0.9158
476	0.9221
485	0.934
494	0.9435
503	0.9459
512	0.9401
521	0.9215
530	0.8368
539	0.6239
548	0.8581
557	0.9299
566	0.9481
575	0.9519
584	0.9508
593	0.9418
602	0.9302
611	0.8895
620	0.9367
629	0.9324
638	0.922
647	0.9188
656	0.9254
665	0.921
674	0.9029
683	0.8684
692	0.8691
701	0.8465
710	0.7825
719	0.6228
728	0.1378
737	-0.0036
746	0.1963
755	0.6468
764	0.7784
773	0.8586
782	0.8792
791	0.8809
800	0.8169
809	0.4689
818	0.8406
827	0.8293
836	0.7464
845	0.6929
854	0.1809
863	0.6899
872	0.4817
881	0.4725
890	0.0781
899	-0.0036
908	0.1576
917	0.5781
926	0.7111
935	0.7679
944	0.7224
953	0.4443
962	0.785
971	0.8776
980	0.8993
989	0.9006
998	0.8904
1007	0.8796
1016	0.865
1025	0.8271
1034	0.7716
1043	0.6522
1052	0.3295
1061	-0.0036
1070	-0.0036
1079	0.1652
1088	0.4998
1097	0.5612
1106	0.5237
1115	0.2866
1124	-0.0036
1133	0.0458
1142	0.5594
1151	0.7685
1160	0.8279
1169	0.8621
1178	0.8754
1187	0.8905
1196	0.8862
1205	0.8813
1214	0.8666
1223	0.8398
1232	0.7696
1241	0.4029
1250	0.4132
1259	0.0381
1268	-0.0036
1277	-0.0036
1286	0.5271
1295	0.6946
1304	0.7658
1313	0.7528
1322	0.5864
1331	0.7004
1340	0.7566
1349	0.7539
1358	0.7287
1367	0.6215
1376	0.7485
1385	0.6981
1394	0.5266
1403	0.8208
1412	0.818
1421	0.805
1430	0.7802
1439	0.7335
1448	0.4997
1457	0.1661
1466	0.6469
1475	0.7324
1484	0.7706
1493	0.7797
1502	0.7827
1511	0.767
1520	0.8006
1529	0.8014
1538	0.7871
1547	0.7641
1556	0.7651
1565	0.663
1574	0.6202
1583	0.7311
1592	0.7818
1601	0.7931
1610	0.7368
1619	0.6998
1628	0.587
1637	0.3857
1646	-0.0036
1655	-0.0016
1664	0.5586
1673	0.6032
1682	0.491
1691	0.5733
1700	0.7079
1709	0.7282
1718	0.7125
1727	0.7926
1736	0.8014
1745	0.8095
1754	0.8121
1763	0.826
1772	0.8344
1781	0.8425
1790	0.8421
1799	0.8397
1808	0.8377
1817	0.8412
1826	0.8388
1835	0.8362
1844	0.8289
1853	0.8198
1862	0.8187
1871	0.8248
1880	0.8325
1889	0.8326
1898	0.8191
1907	0.7986
1916	0.7786
1925	0.7845
1934	0.8282
1943	0.8359
1952	0.8364
1961	0.8347
1970	0.8207
1979	0.821
1988	0.8349
1997	0.8311
2006	0.8097
2015	0.6905
2024	0.6588
2033	0.8337
2042	0.8503
2051	0.8517
2060	0.8464
2069	0.8422
2078	0.8406
2087	0.8503
2096	0.8551
2105	0.8464
2114	0.8301
2123	0.843
2132	0.8638
2141	0.8628
2150	0.8587
2159	0.8543
2168	0.8488
2177	0.8464
2186	0.8443
2195	0.8473
2204	0.8493
2213	0.8323
2222	0.8256
2231	0.8473
2240	0.8459
2249	0.8245
2258	0.8313
2267	0.8545
2276	0.8596
2285	0.8629
2294	0.8633
2303	0.8603
2312	0.8636
2321	0.856
2330	0.8505
2339	0.8514
2348	0.8622
2357	0.8696
2366	0.8583
2375	0.8469
2384	0.8321
2393	0.8336
2402	0.8541
2411	0.8596
2420	0.8624
2429	0.8626
2438	0.863
2447	0.8633
2456	0.8627
2465	0.8639
2474	0.8632
2483	0.859
2492	0.8565
2501	0.8528
2510	0.8466
2519	0.8509
2528	0.8567
2537	0.8521
2546	0.8516
2555	0.8547
2564	0.8566
2573	0.8536
2582	0.8469
2591	0.8378
2600	0.8251
2609	0.8503
2618	0.8567
2627	0.853
2636	0.8466
2645	0.847
2654	0.8501
2663	0.8477
2672	0.8308
2681	0.8113
2690	0.8265
2699	0.8155
2708	0.8032
2717	0.8116
2726	0.8224
2735	0.8232
2744	0.7861
2753	0.7974
2762	0.8115
2771	0.7807
2780	0.8198
2789	0.8347
2798	0.8323
2807	0.8201
2816	0.8026
2825	0.7864
2834	0.773
2843	0.7113
2852	0.5932
2861	0.4653
2870	0.2343
2879	0.0758
2888	0.4056
2897	0.6222
2906	0.5923
2915	0.4032
2924	0.2147
2933	0.1161
2942	0.5308
2951	0.5334
2960	0.3934
2969	0.2494
2978	0.1079
2987	0.2453
2996	0.609
3005	0.7705
3014	0.8019
3023	0.8198
3032	0.8364
3041	0.8484
3050	0.8415
3059	0.8414
3068	0.8372
3077	0.8193
3086	0.795
3095	0.6882
3104	0.5756
3113	0.7398
3122	0.8113
3131	0.8443
3140	0.8538
3149	0.8576
3158	0.8599
3167	0.8627
3176	0.8653
3185	0.8671
3194	0.8707
3203	0.8707
3212	0.8739
3221	0.8755
3230	0.8771
3239	0.8774
3248	0.8777
3257	0.8779
3266	0.8784
3275	0.8788
3284	0.8777
3293	0.8782
3302	0.879
3311	0.8809
3320	0.8795
3329	0.8799
3338	0.8821
3347	0.8809
3356	0.8816
3365	0.883
3374	0.8847
3383	0.8861
3392	0.8845
3401	0.8822
3410	0.8799
3419	0.8766
3428	0.8735
3437	0.8701
3446	0.8668
3455	0.8634
3464	0.862
3473	0.8605
3482	0.8598
3491	0.86
3500	0.8602
3509	0.8605
3518	0.8609
3527	0.8611
3536	0.8634
3545	0.8632
3554	0.8632
3563	0.864
3572	0.8658
3581	0.8667
3590	0.8668
3599	0.8626
3608	0.8605
3617	0.8665
3626	0.8656
3635	0.8638
3644	0.8645
3653	0.8666
3662	0.8663
3671	0.8629
3680	0.8649
3689	0.8714
3698	0.8761
3707	0.8731
3716	0.8704
3725	0.8714
3734	0.8722
3743	0.8714
3752	0.8714
3761	0.8709
3770	0.8704
3779	0.8685
3788	0.8701
3797	0.8689
3806	0.8705
