Infrared Spectrum: Methylphosphonic acid
Formula: C H5 O3 P
CAS: 993-13-5
State: SOLID (SPLIT MULL), FLUOROLUBE FOR 3800-1330 CM^-^1, NUJOL FOR 1330-400 CM^-^1; (DRY BOX UNDER N2)
Class: COBLENTZ II
Instrument: DOW KBr FOREPRISM-GRATING
Instrument parameters: BLAZED AT 3.5, 12.0, 20.0 MICRON AND CHANGED AT 5.0, 7.5, 14.9 MICRON
Sampling: TRANSMISSION
Resolution: 2
Origin: DOW CHEMICAL COMPANY
1/CM	TRANSMITTANCE
3810	0.892
3801	0.8923
3792	0.8925
3783	0.8933
3774	0.894
3765	0.8947
3756	0.8945
3747	0.8941
3738	0.8938
3729	0.8935
3720	0.8936
3711	0.8938
3702	0.894
3693	0.8941
3684	0.8943
3675	0.8934
3666	0.8923
3657	0.8912
3648	0.8901
3639	0.8888
3630	0.8875
3621	0.8861
3612	0.8848
3603	0.8833
3594	0.882
3585	0.8806
3576	0.8788
3567	0.8762
3558	0.8735
3549	0.8707
3540	0.8678
3531	0.8651
3522	0.8621
3513	0.8593
3504	0.8561
3495	0.8528
3486	0.8495
3477	0.8462
3468	0.8428
3459	0.8396
3450	0.8364
3441	0.8333
3432	0.8303
3423	0.8271
3414	0.8242
3405	0.8206
3396	0.8168
3387	0.8128
3378	0.8091
3369	0.8047
3360	0.7995
3351	0.7942
3342	0.7883
3333	0.7811
3324	0.774
3315	0.7667
3306	0.7584
3297	0.7498
3288	0.7408
3279	0.7304
3270	0.7199
3261	0.7096
3252	0.699
3243	0.6883
3234	0.6774
3225	0.6657
3216	0.6541
3207	0.6401
3198	0.6262
3189	0.6137
3180	0.6014
3171	0.589
3162	0.5757
3153	0.5622
3144	0.5471
3135	0.5319
3126	0.5177
3117	0.5042
3108	0.4906
3099	0.4766
3090	0.4619
3081	0.4476
3072	0.4367
3063	0.426
3054	0.4143
3045	0.4023
3036	0.3903
3027	0.3762
3018	0.3543
3009	0.35
3000	0.3457
2991	0.3404
2982	0.3341
2973	0.3277
2964	0.3209
2955	0.3137
2946	0.3077
2937	0.2973
2928	0.2913
2919	0.2882
2910	0.2847
2901	0.2799
2892	0.2757
2883	0.2721
2874	0.2685
2865	0.2642
2856	0.2595
2847	0.2552
2838	0.2528
2829	0.2503
2820	0.2478
2811	0.2453
2802	0.243
2793	0.2413
2784	0.2397
2775	0.238
2766	0.2372
2757	0.2375
2748	0.238
2739	0.2383
2730	0.2391
2721	0.2402
2712	0.2431
2703	0.2462
2694	0.251
2685	0.2558
2676	0.2607
2667	0.2662
2658	0.2722
2649	0.278
2640	0.284
2631	0.2898
2622	0.2962
2613	0.3038
2604	0.3115
2595	0.3191
2586	0.3271
2577	0.3355
2568	0.344
2559	0.3516
2550	0.3588
2541	0.3652
2532	0.3699
2523	0.3734
2514	0.3768
2505	0.3793
2496	0.3812
2487	0.3827
2478	0.3845
2469	0.3878
2460	0.3905
2451	0.3927
2442	0.393
2433	0.3878
2424	0.38
2415	0.3718
2406	0.3621
2397	0.3499
2388	0.3221
2379	0.3181
2370	0.3161
2361	0.3142
2352	0.3121
2343	0.31
2334	0.3066
2325	0.3015
2316	0.2963
2307	0.294
2298	0.2965
2289	0.302
2280	0.3105
2271	0.3226
2262	0.3366
2253	0.3508
2244	0.365
2235	0.3798
2226	0.3892
2217	0.3982
2208	0.4087
2199	0.4197
2190	0.4326
2181	0.4445
2172	0.4517
2163	0.4575
2154	0.4654
2145	0.4744
2136	0.4854
2127	0.4986
2118	0.5117
2109	0.5247
2100	0.5378
2091	0.551
2082	0.5636
2073	0.5751
2064	0.5868
2055	0.5958
2046	0.6044
2037	0.6127
2028	0.6197
2019	0.6266
2010	0.632
2001	0.6378
1992	0.6467
1983	0.6561
1974	0.6667
1965	0.6749
1956	0.6837
1947	0.6907
1938	0.6971
1929	0.7032
1920	0.7075
1911	0.7111
1902	0.7142
1893	0.7169
1884	0.7204
1875	0.7236
1866	0.7258
1857	0.7261
1848	0.7249
1839	0.7275
1830	0.7295
1821	0.7326
1812	0.7355
1803	0.7385
1794	0.7393
1785	0.7397
1776	0.7328
1767	0.7307
1758	0.7298
1749	0.7337
1740	0.7384
1731	0.7371
1722	0.7358
1713	0.7355
1704	0.7351
1695	0.7349
1686	0.7345
1677	0.734
1668	0.7322
1659	0.7275
1650	0.7233
1641	0.7167
1632	0.7104
1623	0.7047
1614	0.6999
1605	0.6971
1596	0.6949
1587	0.6934
1578	0.6921
1569	0.691
1560	0.6888
1551	0.6819
1542	0.6736
1533	0.6664
1524	0.6668
1515	0.6745
1506	0.6758
1497	0.6792
1488	0.6862
1479	0.6924
1470	0.6941
1461	0.6936
1452	0.689
1443	0.6856
1434	0.6911
1425	0.6925
1416	0.6568
1407	0.6983
1398	0.7271
1389	0.7528
1380	0.7738
1371	0.7668
1362	0.759
1353	0.7422
1344	0.6994
1335	0.6684
1326	0.5197
1317	0.3866
1308	0.6266
1299	0.6243
1290	0.5696
1281	0.4964
1272	0.4203
1263	0.3464
1254	0.3164
1245	0.3158
1236	0.3374
1227	0.3609
1218	0.3766
1209	0.3788
1200	0.3762
1191	0.3471
1182	0.3187
1173	0.328
1164	0.3245
1155	0.2644
1146	0.2738
1137	0.4026
1128	0.3852
1119	0.2169
1110	0.2059
1101	0.3956
1092	0.5387
1083	0.5912
1074	0.6106
1065	0.61
1056	0.5753
1047	0.4766
1038	0.3388
1029	0.1327
1020	0.0483
1011	0.05
1002	0.1675
993	0.359
984	0.479
975	0.5118
966	0.3573
957	0.0959
948	0.2971
939	0.4318
930	0.4384
921	0.6785
912	0.7358
903	0.7524
894	0.7568
885	0.7428
876	0.7569
867	0.7601
858	0.7571
849	0.7506
840	0.7424
831	0.7237
822	0.6687
813	0.5868
804	0.5388
795	0.5156
786	0.4994
777	0.4404
768	0.2947
759	0.5866
750	0.6561
741	0.7021
732	0.7265
723	0.729
714	0.7594
705	0.7886
696	0.8048
687	0.8198
678	0.8275
669	0.8287
660	0.8291
651	0.8307
642	0.8318
633	0.8313
624	0.8292
615	0.8252
606	0.8218
597	0.8214
588	0.821
579	0.819
570	0.8162
561	0.8131
552	0.808
543	0.7993
534	0.7875
525	0.7643
516	0.623
507	0.6174
498	0.3518
489	0.6199
480	0.7005
471	0.491
462	0.2104
453	0.3468
444	0.5188
435	0.6584
426	0.6868
417	0.6865
408	0.6828
399	0.6775
390	0.6711
