Infrared Spectrum: DIVINYL ACETYLENE
Formula: C6 H6
CAS: 821-08-9
Class: COBLENTZ
Instrument: Not specified, most likely a prism, grating, or hybrid spectrometer.
Sampling: TRANSMISSION
Path length: 0.0017 CM
Resolution: 4
Origin: BATTLE MEMORIAL INSTITUTE
MICROMETERS	TRANSMITTANCE
1.568	0.871
1.60778	0.868
1.64757	0.867
1.68735	0.867
1.72713	0.867
1.76692	0.867
1.8067	0.867
1.84649	0.867
1.88627	0.867
1.92605	0.867
1.96584	0.867
2.00562	0.87
2.0454	0.87
2.08519	0.868
2.12497	0.866
2.16475	0.863
2.20454	0.864
2.24432	0.842
2.2841	0.849
2.32389	0.851
2.36367	0.86
2.40346	0.852
2.44324	0.854
2.48302	0.859
2.52281	0.866
2.56259	0.87
2.60237	0.871
2.64216	0.872
2.68194	0.872
2.72172	0.87
2.76151	0.868
2.80129	0.868
2.84108	0.867
2.88086	0.867
2.92064	0.867
2.96043	0.867
3.00021	0.847
3.03999	0.85
3.07978	0.859
3.11956	0.854
3.15934	0.839
3.19913	0.637
3.23891	0.778
3.2787	0.7
3.31848	0.717
3.35826	0.774
3.39805	0.821
3.43783	0.849
3.47761	0.859
3.5174	0.87
3.55718	0.879
3.59696	0.88
3.63675	0.88
3.67653	0.88
3.71631	0.882
3.7561	0.886
3.79588	0.886
3.83567	0.886
3.87545	0.886
3.91523	0.886
3.95502	0.886
3.9948	0.884
4.03458	0.879
4.07437	0.879
4.11415	0.879
4.15393	0.879
4.19372	0.878
4.2335	0.876
4.27329	0.876
4.31307	0.876
4.35285	0.872
4.39264	0.868
4.43242	0.867
4.4722	0.859
4.51199	0.849
4.55177	0.851
4.59155	0.858
4.63134	0.859
4.67112	0.859
4.71091	0.859
4.75069	0.86
4.79047	0.86
4.83026	0.86
4.87004	0.86
4.90982	0.86
4.94961	0.86
4.98939	0.859
5.02917	0.858
5.06896	0.854
5.10874	0.843
5.14852	0.817
5.18831	0.827
5.22809	0.833
5.26788	0.814
5.30766	0.784
5.34744	0.679
5.38723	0.562
5.42701	0.635
5.46679	0.776
5.50658	0.821
5.54636	0.837
5.58614	0.841
5.62593	0.845
5.66571	0.846
5.7055	0.845
5.74528	0.842
5.78506	0.835
5.82485	0.83
5.86463	0.813
5.90441	0.813
5.9442	0.815
5.98398	0.8
6.02376	0.752
6.06355	0.704
6.10333	0.705
6.14311	0.623
6.1829	0.234
6.22268	0.349
6.26247	0.434
6.30225	0.603
6.34203	0.723
6.38182	0.776
6.4216	0.811
6.46138	0.821
6.50117	0.831
6.54095	0.835
6.58073	0.839
6.62052	0.841
6.6603	0.841
6.70009	0.839
6.73987	0.837
6.77965	0.833
6.81944	0.829
6.85922	0.821
6.899	0.807
6.93879	0.79
6.97857	0.739
7.01835	0.647
7.05814	0.629
7.09792	0.618
7.13771	0.626
7.17749	0.735
7.21727	0.774
7.25706	0.785
7.29684	0.789
7.33662	0.781
7.37641	0.773
7.41619	0.77
7.45597	0.776
7.49576	0.781
7.53554	0.784
7.57532	0.784
7.61511	0.785
7.65489	0.776
7.69468	0.747
7.73446	0.637
7.77424	0.602
7.81403	0.716
7.85381	0.774
7.89359	0.794
7.93338	0.802
7.97316	0.813
8.01294	0.817
8.05273	0.819
8.09251	0.822
8.1323	0.821
8.17208	0.814
8.21186	0.797
8.25165	0.801
8.29143	0.81
8.33121	0.807
8.371	0.789
8.41078	0.703
8.45056	0.357
8.49035	0.202
8.53013	0.585
8.56992	0.717
8.6097	0.772
8.64948	0.793
8.68927	0.802
8.72905	0.811
8.76883	0.815
8.80862	0.818
8.8484	0.819
8.88818	0.819
8.92797	0.818
8.96775	0.819
9.00753	0.819
9.04732	0.817
9.0871	0.815
9.12689	0.813
9.16667	0.811
9.20645	0.809
9.24624	0.803
9.28602	0.8
9.3258	0.798
9.36559	0.798
9.40537	0.796
9.44515	0.794
9.48494	0.792
9.52472	0.788
9.56451	0.782
9.60429	0.774
9.64407	0.761
9.68386	0.75
9.72364	0.731
9.76342	0.72
9.80321	0.701
9.84299	0.694
9.88277	0.679
9.92256	0.658
9.96234	0.631
10.0021	0.602
10.0419	0.565
10.0817	0.523
10.1215	0.468
10.1613	0.38
10.201	0.262
10.2408	0.161
10.2806	0.083
10.3204	0.071
10.3602	0.121
10.4	0.207
10.4397	0.274
10.4795	0.335
10.5193	0.357
10.5591	0.358
10.5989	0.337
10.6387	0.296
10.6784	0.221
10.7182	0.147
10.758	0.091
10.7978	0.05
10.8376	0.023
10.8774	0.018
10.9171	0.019
10.9569	0.034
10.9967	0.096
11.0365	0.18
11.0763	0.276
11.1161	0.37
11.1558	0.435
11.1956	0.49
11.2354	0.531
11.2752	0.565
11.315	0.6
11.3548	0.623
11.3946	0.645
11.4343	0.666
11.4741	0.691
11.5139	0.711
11.5537	0.731
11.5935	0.745
11.6333	0.752
11.673	0.761
11.7128	0.77
11.7526	0.774
11.7924	0.778
11.8322	0.784
11.872	0.786
11.9117	0.792
11.9515	0.794
11.9913	0.796
12.0311	0.8
12.0709	0.805
12.1107	0.809
12.1504	0.813
12.1902	0.817
12.23	0.819
12.2698	0.821
12.3096	0.822
12.3494	0.823
12.3891	0.822
12.4289	0.822
12.4687	0.823
12.5085	0.823
12.5483	0.825
12.5881	0.822
12.6278	0.815
12.6676	0.811
12.7074	0.81
12.7472	0.809
12.787	0.809
12.8268	0.81
12.8665	0.811
12.9063	0.813
12.9461	0.815
12.9859	0.815
13.0257	0.813
13.0655	0.813
13.1052	0.811
13.145	0.81
13.1848	0.81
13.2246	0.81
13.2644	0.809
13.3042	0.809
13.3439	0.805
13.3837	0.802
13.4235	0.802
13.4633	0.802
13.5031	0.802
13.5429	0.801
13.5826	0.801
13.6224	0.801
13.6622	0.8
13.702	0.798
13.7418	0.797
13.7816	0.794
13.8214	0.792
13.8611	0.792
13.9009	0.789
13.9407	0.786
13.9805	0.782
14.0203	0.777
14.0601	0.773
14.0998	0.769
14.1396	0.765
14.1794	0.762
14.2192	0.756
14.259	0.748
14.2988	0.744
14.3385	0.739
14.3783	0.729
14.4181	0.72
14.4579	0.707
14.4977	0.695
14.5375	0.683
14.5772	0.663
14.617	0.645
14.6568	0.621
14.6966	0.592
14.7364	0.566
14.7762	0.539
14.8159	0.517
14.8557	0.501
14.8955	0.496
14.9353	0.495
14.9751	0.505
15.0149	0.521
15.0546	0.535
15.0944	0.556
15.1342	0.58
15.174	0.594
15.2138	0.613
