Infrared Spectrum: 4-Methyl-1-pentyne
Formula: C 6 H 10
CAS: 7154-75-8
State: gas
Instrument: HP-GC/MS/IRD
Origin: NIST Mass Spectrometry Data Center
1/CM	ABSORBANCE
550	0.000244
562	0.0004148
574	0.0006588
586	0.0015555
598	0.003355
610	0.0099491
622	0.0293288
634	0.061
646	0.0282613
658	0.0083265
670	0.0023058
682	0.0007991
694	0.0004392
706	0.000366
718	0.0002928
730	0.0002379
742	0.0002867
754	0.0003538
766	0.0005429
778	0.0005978
790	0.0007747
802	0.0008784
814	0.0008479
826	0.0006039
838	0.0003111
850	0.0003721
862	0.0004087
874	0.0004331
886	0.0004941
898	0.0004331
910	0.0004575
922	0.0005795
934	0.0006832
946	0.0006649
958	0.0008174
970	0.0009089
982	0.0007259
994	0.000427
1006	0.0001586
1018	3.66e-05
1030	0.000122
1042	0.0002074
1054	0.0001281
1066	0.0001891
1078	0.0004453
1090	0.0008906
1102	0.0014518
1114	0.001403
1126	0.0009882
1138	0.0008906
1150	0.001525
1162	0.0025681
1174	0.0023851
1186	0.0014457
1198	0.0009455
1210	0.0013481
1222	0.0035868
1234	0.0099186
1246	0.012749
1258	0.0116998
1270	0.0055205
1282	0.0033733
1294	0.00244
1306	0.0014152
1318	0.0015189
1330	0.0023546
1342	0.0030317
1354	0.0035075
1366	0.0044652
1378	0.0060024
1390	0.0062159
1402	0.0041053
1414	0.0024034
1426	0.0030378
1438	0.0045506
1450	0.0061366
1462	0.0068747
1474	0.0063379
1486	0.0041419
1498	0.002074
1510	0.0009333
1522	0.0005063
1534	0.0003355
1546	0.0003355
1558	0.0003843
1570	0.0002928
1582	0.0002562
1594	0.0002379
1606	0.0002562
1618	0.0002562
1630	0.000244
1642	0.0002196
1654	0.0002867
1666	0.0002562
1678	0.0002867
1690	0.0002135
1702	0.000244
1714	0.0002013
1726	0.0001342
1738	0.0001586
1750	0.0001403
1762	0.0001037
1774	0.000122
1786	0.0001159
1798	0.000122
1810	7.93e-05
1822	9.15e-05
1834	7.32e-05
1846	6.1e-05
1858	7.93e-05
1870	6.1e-05
1882	7.32e-05
1894	4.27e-05
1906	4.88e-05
1918	0
1930	6.1e-06
1942	1.22e-05
1954	6.1e-06
1966	2.44e-05
1978	0
1990	0
2002	0
2014	1.22e-05
2026	4.27e-05
2038	1.22e-05
2050	2.44e-05
2062	8.54e-05
2074	0.0002013
2086	0.0005429
2098	0.0014396
2110	0.0024583
2122	0.002501
2134	0.0013969
2146	0.0002928
2158	0.0001098
2170	8.54e-05
2182	9.76e-05
2194	9.76e-05
2206	3.66e-05
2218	9.76e-05
2230	6.71e-05
2242	6.71e-05
2254	0.000122
2266	0.0001159
2278	0.0001037
2290	0.0001037
2302	9.76e-05
2314	9.15e-05
2326	0.0001159
2338	9.15e-05
2350	6.1e-05
2362	7.32e-05
2374	6.71e-05
2386	6.71e-05
2398	9.76e-05
2410	0.0001159
2422	0.0001342
2434	0.0001403
2446	0.0002074
2458	0.0001891
2470	0.0001586
2482	0.0001403
2494	0.0001464
2506	9.15e-05
2518	0.0001647
2530	0.0001708
2542	0.0002684
2554	0.0003355
2566	0.0003416
2578	0.0002867
2590	0.0003294
2602	0.0003111
2614	0.0004026
2626	0.0004209
2638	0.0005063
2650	0.0005734
2662	0.0005795
2674	0.0005978
2686	0.0006283
2698	0.0007442
2710	0.0006649
2722	0.000793
2734	0.0010065
2746	0.0010919
2758	0.0010065
2770	0.0010065
2782	0.0009943
2794	0.0012017
2806	0.0015555
2818	0.0021289
2830	0.003294
2842	0.0043005
2854	0.005551
2866	0.009272
2878	0.013786
2890	0.0175497
2902	0.0212646
2914	0.0272243
2926	0.0307623
2938	0.0328546
2950	0.036417
2962	0.0486475
2974	0.0446276
2986	0.028121
2998	0.0088877
3010	0.0030134
3022	0.0017385
3034	0.0014152
3046	0.0012871
3058	0.0012688
3070	0.001159
3082	0.0010553
3094	0.001037
3106	0.0009638
3118	0.0008845
3130	0.0008662
3142	0.0007686
3154	0.0007991
3166	0.0009089
3178	0.0009333
3190	0.0009272
3202	0.0008113
3214	0.0007686
3226	0.0006161
3238	0.00061
3250	0.0007625
3262	0.0011041
3274	0.0021045
3286	0.0037332
3298	0.0079971
3310	0.0131699
3322	0.0200446
3334	0.0176778
3346	0.0084363
3358	0.002684
3370	0.0012505
3382	0.0005673
3394	0.0004209
3406	0.0003294
3418	0.0003172
3430	0.0002379
3442	0.0002196
3454	0.0001647
3466	0.0001891
3478	0.0002318
3490	0.000183
3502	8.54e-05
3514	0.0001159
3526	3.66e-05
3538	0.0001647
3550	7.32e-05
3562	0.0001891
3574	0.000122
3586	0.000122
3598	9.76e-05
3610	0.0001586
3622	0.0001159
3634	0.000122
3646	0.0002196
3658	0.0001159
3670	0.0002196
3682	0.0001586
3694	0.000122
3706	0.0001403
3718	0.0001403
3730	6.71e-05
3742	0.000244
3754	0.000183
3766	0.0001952
3778	0.000244
3790	0.0001586
3802	0.0002318
3814	0.0001952
3826	0.0002074
3838	0.0002318
