Infrared Spectrum: Ethylene, tetrachloro-
Formula: C2 Cl4
CAS: 127-18-4
State: GAS (13 mmHg, N2 ADDED, TOTAL PRESSURE 600 mmHg)
Class: COBLENTZ
Instrument: DOW KBr FOREPRISM-GRATING
Instrument parameters: GRATING CHANGED AT 5.0, 7.5, 15.0 MICRON
Sampling: TRANSMISSION
Path length: 5 CM
Resolution: 2
Origin: DOW CHEMICAL COMPANY
1/CM	TRANSMITTANCE
455	0.8259
464	0.8257
473	0.8244
482	0.8253
491	0.8397
500	0.8487
509	0.8492
518	0.8503
527	0.8509
536	0.8506
545	0.8513
554	0.8556
563	0.8611
572	0.8626
581	0.8626
590	0.8629
599	0.8642
608	0.8653
617	0.8654
626	0.8655
635	0.8656
644	0.8658
653	0.8661
662	0.867
671	0.8768
680	0.8865
689	0.8827
698	0.8789
707	0.875
716	0.8609
725	0.8402
734	0.8275
743	0.8178
752	0.7859
761	0.7922
770	0.7698
779	0.4369
788	0.5117
797	0.6839
806	0.6295
815	0.8203
824	0.8769
833	0.8815
842	0.8916
851	0.893
860	0.8928
869	0.8913
878	0.8903
887	0.8774
896	0.8025
905	0.4726
914	0.0622
923	0.08
932	0.8672
941	0.9013
950	0.9044
959	0.9036
968	0.9033
977	0.9038
986	0.9042
995	0.9043
1004	0.9044
1013	0.9047
1022	0.9043
1031	0.9032
1040	0.9015
1049	0.8988
1058	0.8954
1067	0.8906
1076	0.8813
1085	0.8825
1094	0.879
1103	0.8767
1112	0.8824
1121	0.8839
1130	0.8832
1139	0.8873
1148	0.8884
1157	0.8919
1166	0.9
1175	0.8979
1184	0.897
1193	0.9052
1202	0.9052
1211	0.9049
1220	0.9054
1229	0.9076
1238	0.9022
1247	0.8941
1256	0.8879
1265	0.8872
1274	0.8873
1283	0.8869
1292	0.8863
1301	0.8856
1310	0.8851
1319	0.8856
1328	0.8874
1337	0.8877
1346	0.8876
1355	0.8879
1364	0.884
1373	0.8746
1382	0.8703
1391	0.8686
1400	0.8697
1409	0.8711
1418	0.8748
1427	0.8775
1436	0.8796
1445	0.8811
1454	0.8824
1463	0.8829
1472	0.8844
1481	0.8793
1490	0.8784
1499	0.8806
1508	0.8888
1517	0.8822
1526	0.8913
1535	0.8865
1544	0.8856
1553	0.8835
1562	0.8879
1571	0.8849
1580	0.8817
1589	0.8777
1598	0.8761
1607	0.8763
1616	0.8822
1625	0.8754
1634	0.8698
1643	0.8644
1652	0.8636
1661	0.8677
1670	0.8739
1679	0.8787
1688	0.8826
1697	0.8766
1706	0.8608
1715	0.857
1724	0.852
1733	0.8648
1742	0.8761
1751	0.8771
1760	0.8779
1769	0.8778
1778	0.8774
1787	0.8769
1796	0.8765
1805	0.8762
1814	0.8755
1823	0.8748
1832	0.874
1841	0.8731
1850	0.872
1859	0.8715
1868	0.8717
1877	0.8719
1886	0.872
1895	0.8721
1904	0.8727
1913	0.8733
1922	0.8736
1931	0.8728
1940	0.8721
1949	0.8715
1958	0.8712
1967	0.871
1976	0.8712
1985	0.8714
1994	0.872
2003	0.8726
2012	0.8731
2021	0.8736
2030	0.8743
2039	0.8754
2048	0.8758
2057	0.8762
2066	0.8766
2075	0.8769
2084	0.8774
2093	0.8777
2102	0.8778
2111	0.8777
2120	0.8776
2129	0.8774
2138	0.8772
2147	0.8768
2156	0.8762
2165	0.8756
2174	0.8758
2183	0.8762
2192	0.8769
2201	0.8771
2210	0.8775
2219	0.8782
2228	0.8789
2237	0.8796
2246	0.8798
2255	0.8799
2264	0.88
2273	0.8803
2282	0.8806
2291	0.8809
2300	0.8827
2309	0.8859
2318	0.8903
2327	0.895
2336	0.8951
2345	0.8919
2354	0.8941
2363	0.8988
2372	0.8967
2381	0.8902
2390	0.8802
2399	0.8781
2408	0.8777
2417	0.8772
2426	0.8776
2435	0.878
2444	0.8783
2453	0.8786
2462	0.8789
2471	0.8786
2480	0.8783
2489	0.878
2498	0.8778
2507	0.8776
2516	0.8775
2525	0.8774
2534	0.8774
2543	0.8773
2552	0.8774
2561	0.8776
2570	0.8779
2579	0.8781
2588	0.8782
2597	0.8782
2606	0.8781
2615	0.8781
2624	0.8781
2633	0.8782
2642	0.8783
2651	0.8785
2660	0.8786
2669	0.8786
2678	0.8785
2687	0.8785
2696	0.8782
2705	0.8778
2714	0.8774
2723	0.8771
2732	0.8768
2741	0.8762
2750	0.8755
2759	0.8748
2768	0.8743
2777	0.8741
2786	0.874
2795	0.8741
2804	0.8747
2813	0.8753
2822	0.8762
2831	0.8775
2840	0.8804
2849	0.8824
2858	0.8816
2867	0.8804
2876	0.8799
2885	0.8799
2894	0.8808
2903	0.8837
2912	0.889
2921	0.8877
2930	0.8819
2939	0.8773
2948	0.8749
2957	0.873
2966	0.872
2975	0.8712
2984	0.8708
2993	0.8698
3002	0.8688
3011	0.8676
3020	0.8666
3029	0.8661
3038	0.8657
3047	0.8657
3056	0.8656
3065	0.8657
3074	0.8658
3083	0.8658
3092	0.866
3101	0.8662
3110	0.8664
3119	0.8665
3128	0.8665
3137	0.8666
3146	0.8666
3155	0.8665
3164	0.8662
3173	0.8658
3182	0.8655
3191	0.8651
3200	0.8648
3209	0.8641
3218	0.8636
3227	0.863
3236	0.8625
3245	0.8619
3254	0.8616
3263	0.8613
3272	0.8611
3281	0.8608
3290	0.8606
3299	0.8603
3308	0.8602
3317	0.86
3326	0.8598
3335	0.8596
3344	0.8594
3353	0.8594
3362	0.8593
3371	0.8593
3380	0.8592
3389	0.8594
3398	0.86
3407	0.8606
3416	0.8614
3425	0.8626
3434	0.8638
3443	0.865
3452	0.8664
3461	0.868
3470	0.8696
3479	0.8713
3488	0.873
3497	0.8742
3506	0.8747
3515	0.8751
3524	0.8752
3533	0.8753
3542	0.8754
3551	0.8755
3560	0.8755
3569	0.8756
3578	0.8758
3587	0.876
3596	0.8762
3605	0.8762
3614	0.8761
3623	0.8763
3632	0.8767
3641	0.8764
3650	0.876
3659	0.8739
3668	0.8714
3677	0.869
3686	0.8735
3695	0.8753
3704	0.8763
3713	0.8783
3722	0.8811
3731	0.8811
3740	0.8728
3749	0.8732
3758	0.8738
3767	0.8742
3776	0.8747
3785	0.8751
3794	0.8755
