Infrared Spectrum: TETRACHLOROETHYLENE
Formula: C2 Cl4
CAS: 127-18-4
Class: COBLENTZ
Instrument: Not specified, most likely a prism, grating, or hybrid spectrometer.
Sampling: TRANSMISSION
Resolution: 4
Origin: W.T. BOLLETER
MICROMETERS	TRANSMITTANCE
14.543	0.644
14.6131	0.61
14.6831	0.585
14.7532	0.583
14.8233	0.605
14.8934	0.619
14.9634	0.625
15.0335	0.617
15.1036	0.603
15.1737	0.594
15.2437	0.608
15.3138	0.65
15.3839	0.707
15.454	0.725
15.524	0.741
15.5941	0.748
15.6642	0.753
15.7343	0.758
15.8043	0.757
15.8744	0.75
15.9445	0.744
16.0146	0.741
16.0846	0.735
16.1547	0.728
16.2248	0.723
16.2949	0.721
16.3649	0.719
16.435	0.708
16.5051	0.698
16.5752	0.682
16.6452	0.666
16.7153	0.65
16.7854	0.65
16.8555	0.671
16.9255	0.698
16.9956	0.714
17.0657	0.723
17.1358	0.726
17.2058	0.73
17.2759	0.73
17.346	0.732
17.4161	0.725
17.4861	0.723
17.5562	0.712
17.6263	0.7
17.6964	0.691
17.7664	0.685
17.8365	0.689
17.9066	0.701
17.9767	0.714
18.0467	0.723
18.1168	0.732
18.1869	0.735
18.257	0.741
18.327	0.739
18.3971	0.737
18.4672	0.735
18.5373	0.732
18.6073	0.73
18.6774	0.725
18.7475	0.723
18.8176	0.719
18.8876	0.712
18.9577	0.708
19.0278	0.71
19.0979	0.712
19.1679	0.712
19.238	0.712
19.3081	0.707
19.3781	0.701
19.4482	0.7
19.5183	0.694
19.5884	0.691
19.6584	0.691
19.7285	0.691
19.7986	0.692
19.8687	0.694
19.9387	0.698
20.0088	0.698
20.0789	0.694
20.149	0.698
20.219	0.698
20.2891	0.698
20.3592	0.698
20.4293	0.696
20.4993	0.692
20.5694	0.687
20.6395	0.687
20.7096	0.685
20.7796	0.68
20.8497	0.676
20.9198	0.673
20.9899	0.671
21.0599	0.667
21.13	0.662
21.2001	0.658
21.2702	0.648
21.3402	0.635
21.4103	0.617
21.4804	0.603
21.5505	0.589
21.6205	0.576
21.6906	0.573
21.7607	0.575
21.8308	0.585
21.9008	0.603
21.9709	0.614
22.041	0.626
22.1111	0.635
22.1811	0.641
22.2512	0.644
22.3213	0.648
22.3914	0.651
22.4614	0.657
22.5315	0.662
22.6016	0.667
22.6717	0.669
22.7417	0.675
22.8118	0.676
22.8819	0.68
22.952	0.682
23.022	0.682
23.0921	0.678
23.1622	0.676
23.2323	0.678
23.3023	0.68
23.3724	0.683
23.4425	0.692
23.5126	0.7
23.5826	0.707
23.6527	0.712
23.7228	0.714
23.7929	0.716
23.8629	0.716
23.933	0.714
24.0031	0.712
24.0731	0.707
24.1432	0.7
24.2133	0.692
24.2834	0.682
24.3534	0.68
24.4235	0.682
24.4936	0.687
24.5637	0.691
24.6337	0.7
24.7038	0.71
24.7739	0.712
24.844	0.719
24.914	0.746
24.9841	0.751
25.0542	0.751
25.1243	0.753
25.1943	0.757
25.2644	0.762
25.3345	0.762
25.4046	0.76
25.4746	0.76
25.5447	0.764
25.6148	0.764
25.6849	0.766
25.7549	0.769
25.825	0.771
25.8951	0.769
25.9652	0.771
26.0352	0.771
26.1053	0.771
26.1754	0.773
26.2455	0.773
26.3155	0.776
26.3856	0.776
26.4557	0.776
26.5258	0.778
26.5958	0.78
26.6659	0.78
26.736	0.78
26.8061	0.78
26.8761	0.782
26.9462	0.783
27.0163	0.794
27.0864	0.796
27.1564	0.798
27.2265	0.798
27.2966	0.8
27.3667	0.8
27.4367	0.801
27.5068	0.803
27.5769	0.807
27.647	0.81
27.717	0.808
27.7871	0.808
27.8572	0.808
27.9273	0.808
27.9973	0.81
28.0674	0.81
28.1375	0.81
28.2076	0.81
28.2776	0.814
28.3477	0.816
28.4178	0.817
28.4879	0.816
28.5579	0.814
28.628	0.814
28.6981	0.812
28.7681	0.808
28.8382	0.805
28.9083	0.805
28.9784	0.805
29.0484	0.805
29.1185	0.807
29.1886	0.807
29.2587	0.805
29.3287	0.803
29.3988	0.803
29.4689	0.803
29.539	0.803
29.609	0.803
29.6791	0.803
29.7492	0.803
29.8193	0.803
29.8893	0.801
29.9594	0.8
30.0295	0.8
30.0996	0.798
30.1696	0.796
30.2397	0.792
30.3098	0.791
30.3799	0.787
30.4499	0.785
30.52	0.782
30.5901	0.78
30.6602	0.78
30.7302	0.778
30.8003	0.776
30.8704	0.775
30.9405	0.773
31.0105	0.771
31.0806	0.771
31.1507	0.767
31.2208	0.766
31.2908	0.76
31.3609	0.757
31.431	0.755
31.5011	0.751
31.5711	0.748
31.6412	0.744
31.7113	0.741
31.7814	0.737
31.8514	0.732
31.9215	0.725
31.9916	0.716
32.0617	0.705
32.1317	0.7
32.2018	0.696
32.2719	0.692
32.342	0.691
32.412	0.689
32.4821	0.689
32.5522	0.687
32.6223	0.685
32.6923	0.683
32.7624	0.682
32.8325	0.682
32.9026	0.68
32.9726	0.678
33.0427	0.675
33.1128	0.667
33.1829	0.664
33.2529	0.662
33.323	0.662
33.3931	0.657
33.4631	0.651
33.5332	0.65
33.6033	0.644
33.6734	0.641
33.7434	0.641
33.8135	0.635
33.8836	0.632
33.9537	0.63
34.0237	0.623
34.0938	0.61
34.1639	0.603
34.234	0.6
34.304	0.587
34.3741	0.58
34.4442	0.569
34.5143	0.566
34.5843	0.56
34.6544	0.548
34.7245	0.537
34.7946	0.533
34.8646	0.526
34.9347	0.523
35.0048	0.514
35.0749	0.505
35.1449	0.501
35.215	0.498
35.2851	0.494
35.3552	0.489
35.4252	0.487
35.4953	0.485
35.5654	0.487
35.6355	0.483
35.7055	0.482
35.7756	0.483
35.8457	0.482
35.9158	0.478
35.9858	0.473
36.0559	0.467
36.126	0.464
36.1961	0.46
36.2661	0.458
36.3362	0.457
36.4063	0.458
36.4764	0.457
36.5464	0.45
36.6165	0.441
36.6866	0.433
36.7567	0.43
36.8267	0.426
36.8968	0.423
36.9669	0.417
37.037	0.421
37.107	0.416
37.1771	0.41
37.2472	0.407
37.3173	0.407
37.3873	0.403
37.4574	0.4
37.5275	0.398
37.5976	0.396
37.6676	0.4
37.7377	0.398
37.8078	0.391
37.8779	0.383
37.9479	0.378
38.018	0.373
