Infrared Spectrum: ETHENE, TETRACHLORO-
Formula: C2 Cl4
CAS: 127-18-4
State: SOLUTION (10% IN CCl4 FOR 3800-1300, AND 10% IN CS2 FOR 1300-650 CM^-^1) VERSUS SOLVENT
Class: COBLENTZ III
Instrument: PERKIN-ELMER 521 (GRATING)
Instrument parameters: FILTERS AT 3150, 2500, 2000, 1150, 700, 410; GRATING CHANGES AT 2000, 630 CM^-^1
Sampling: TRANSMISSION
Path length: 0.012 AND 0.011 CM (CsBr CELL)
Resolution: 4
Origin: DOW CORNING CORP.
1/CM	TRANSMITTANCE
637.705	0.86
646.557	0.859
655.41	0.849
664.262	0.841
673.115	0.869
681.967	0.863
690.82	0.868
699.672	0.863
708.525	0.875
717.377	0.876
726.23	0.871
735.082	0.868
743.935	0.7971
752.787	0.5851
761.64	0.7039
770.492	0.4462
779.345	0.1079
788.197	0.649
797.05	0.3911
805.902	0.554
814.755	0.762
823.607	0.853
832.46	0.861
841.312	0.842
850.165	0.822
859.017	0.817
867.87	0.802
876.722	0.765
885.575	0.63
894.427	0.425
903.28	0
912.132	0.0289
920.984	0.6167
929.837	0.773
938.689	0.832
947.542	0.852
956.394	0.859
965.247	0.856
974.099	0.842
982.952	0.833
991.804	0.822
1000.66	0.833
1009.51	0.851
1018.36	0.855
1027.21	0.855
1036.07	0.853
1044.92	0.853
1053.77	0.853
1062.62	0.849
1071.48	0.845
1080.33	0.84
1089.18	0.833
1098.03	0.822
1106.89	0.828
1115.74	0.818
1124.59	0.834
1133.44	0.859
1142.3	0.853
1151.15	0.881
1160	0.879
1168.85	0.879
1177.71	0.887
1186.56	0.889
1195.41	0.893
1204.26	0.891
1213.12	0.893
1221.97	0.888
1230.82	0.892
1239.67	0.889
1248.53	0.88
1257.38	0.889
1266.23	0.897
1275.08	0.899
1283.94	0.902
1292.79	0.903
1301.64	0.904
1310.49	0.906
1319.35	0.906
1328.2	0.904
1337.05	0.902
1345.9	0.891
1354.76	0.879
1363.61	0.897
1372.46	0.907
1381.31	0.904
1390.17	0.902
1399.02	0.903
1407.87	0.908
1416.72	0.908
1425.58	0.907
1434.43	0.906
1443.28	0.904
1452.13	0.903
1460.99	0.9
1469.84	0.899
1478.69	0.893
1487.54	0.893
1496.4	0.883
1505.25	0.887
1514.1	0.873
1522.95	0.867
1531.81	0.86
1540.66	0.846
1549.51	0.841
1558.36	0.851
1567.22	0.868
1576.07	0.871
1584.92	0.875
1593.77	0.883
1602.63	0.892
1611.48	0.891
1620.33	0.897
1629.18	0.896
1638.04	0.892
1646.89	0.899
1655.74	0.895
1664.59	0.892
1673.45	0.895
1682.3	0.897
1691.15	0.899
1700	0.897
1708.86	0.896
1717.71	0.893
1726.56	0.893
1735.41	0.893
1744.27	0.892
1753.12	0.892
1761.97	0.891
1770.82	0.891
1779.68	0.895
1788.53	0.897
1797.38	0.893
1806.23	0.892
1815.09	0.892
1823.94	0.893
1832.79	0.895
1841.64	0.895
1850.5	0.895
1859.35	0.892
1868.2	0.892
1877.05	0.889
1885.91	0.887
1894.76	0.891
1903.61	0.892
1912.46	0.897
1921.32	0.893
1930.17	0.897
1939.02	0.896
1947.87	0.899
1956.73	0.893
1965.58	0.896
1974.43	0.893
1983.28	0.9
1992.13	0.892
2000.99	0.895
2009.84	0.897
2018.69	0.8955
2027.54	0.892
2036.4	0.893
2045.25	0.893
2054.1	0.892
2062.95	0.8921
2071.81	0.891
2080.66	0.889
2089.51	0.8902
2098.36	0.889
2107.22	0.891
2116.07	0.889
2124.92	0.8903
2133.77	0.889
2142.63	0.889
2151.48	0.889
2160.33	0.8873
2169.18	0.887
2178.04	0.888
2186.89	0.891
2195.74	0.889
2204.59	0.887
2213.45	0.885
2222.3	0.8825
2231.15	0.8815
2240	0.883
2248.86	0.883
2257.71	0.883
2266.56	0.883
2275.41	0.883
2284.27	0.8838
2293.12	0.8837
2301.97	0.883
2310.82	0.881
2319.68	0.883
2328.53	0.88
2337.38	0.88
2346.23	0.885
2355.09	0.885
2363.94	0.883
2372.79	0.8839
2381.64	0.881
2390.5	0.884
2399.35	0.883
2408.2	0.883
2417.05	0.879
2425.91	0.877
2434.76	0.877
2443.61	0.877
2452.46	0.879
2461.32	0.88
2470.17	0.871
2479.02	0.871
2487.87	0.872
2496.73	0.872
2505.58	0.8741
2514.43	0.876
2523.28	0.876
2532.14	0.875
2540.99	0.8748
2549.84	0.8769
2558.69	0.876
2567.55	0.8748
2576.4	0.872
2585.25	0.872
2594.1	0.8737
2602.96	0.872
2611.81	0.875
2620.66	0.8727
2629.51	0.876
2638.37	0.876
2647.22	0.8753
2656.07	0.8722
2664.92	0.8785
2673.78	0.876
2682.63	0.8745
2691.48	0.8745
2700.33	0.876
2709.19	0.8727
2718.04	0.8758
2726.89	0.876
2735.74	0.876
2744.6	0.8744
2753.45	0.8722
2762.3	0.8737
2771.15	0.8721
2780.01	0.872
2788.86	0.875
2797.71	0.88
2806.56	0.8788
2815.42	0.8794
2824.27	0.883
2833.12	0.8818
2841.97	0.8829
2850.83	0.884
2859.68	0.884
2868.53	0.884
2877.38	0.8811
2886.24	0.88
2895.09	0.883
2903.94	0.8845
2912.79	0.889
2921.65	0.889
2930.5	0.892
2939.35	0.8885
2948.2	0.885
2957.06	0.8886
2965.91	0.8909
2974.76	0.889
2983.61	0.8879
2992.47	0.8844
3001.32	0.8852
3010.17	0.889
3019.02	0.8867
3027.88	0.8863
3036.73	0.8907
3045.58	0.888
3054.43	0.888
3063.29	0.8887
3072.14	0.8888
3080.99	0.8904
3089.84	0.888
3098.7	0.888
3107.55	0.888
3116.4	0.8887
3125.25	0.891
3134.11	0.896
3142.96	0.892
3151.81	0.892
3160.66	0.892
3169.52	0.8944
3178.37	0.896
3187.22	0.895
3196.07	0.8927
3204.93	0.893
3213.78	0.897
3222.63	0.8961
3231.48	0.897
3240.34	0.8969
3249.19	0.897
3258.04	0.8961
3266.89	0.897
3275.75	0.897
3284.6	0.896
3293.45	0.896
3302.3	0.892
3311.16	0.892
3320.01	0.892
3328.86	0.892
3337.71	0.892
3346.56	0.892
3355.42	0.891
3364.27	0.891
3373.12	0.891
3381.97	0.891
3390.83	0.892
3399.68	0.892
3408.53	0.892
3417.38	0.892
3426.24	0.892
3435.09	0.892
3443.94	0.892
3452.79	0.892
3461.65	0.892
3470.5	0.892
3479.35	0.8926
3488.2	0.892
3497.06	0.8903
3505.91	0.892
3514.76	0.895
3523.61	0.8928
3532.47	0.892
3541.32	0.893
3550.17	0.892
3559.02	0.8918
3567.88	0.891
3576.73	0.892
3585.58	0.904
3594.43	0.8927
3603.29	0.892
3612.14	0.892
3620.99	0.892
3629.84	0.892
3638.7	0.8912
3647.55	0.8917
3656.4	0.891
3665.25	0.891
3674.11	0.891
3682.96	0.892
3691.81	0.892
3700.66	0.893
3709.52	0.891
3718.37	0.8914
3727.22	0.891
3736.07	0.892
3744.93	0.891
3753.78	0.892
3762.63	0.8891
3771.48	0.891
3780.34	0.889
3789.19	0.8915
