Infrared Spectrum: Tetrachloroethylene
Formula: C 2 Cl 4
CAS: 127-18-4
State: gas
Origin: Sadtler Research Labs Under US-EPA Contract
1/CM	ABSORBANCE
450	0
462	0.00428782
474	0.0117131
486	0.0176742
498	0.0156872
510	0.00156871
522	0.00711151
534	0.00951687
546	0.00711151
558	0.00836648
570	0.00700693
582	0.00596112
594	0.0107718
606	0.0108764
618	0.00930771
630	0.00930771
642	0.0060657
654	0.00721609
666	0.0101444
678	0.0107718
690	0.0102489
702	0.00983061
714	0.00815732
726	0.00899397
738	0.0218574
750	0.0551142
762	0.0723701
774	0.24472
786	0.244092
798	0.138674
810	0.149133
822	0.0347209
834	0.0163146
846	0.0103535
858	0.0100398
870	0.012968
882	0.034198
894	0.205711
906	0.861015
918	0.931608
930	0.125706
942	0.00847106
954	0.0103535
966	0.00951687
978	0.00909855
990	0.00951687
1002	0.00941229
1014	0.00962145
1026	0.00899397
1038	0.00805274
1050	0.00805274
1062	0.00836648
1074	0.00962145
1086	0.0141184
1098	0.0189292
1110	0.0175696
1122	0.0185108
1134	0.0156872
1146	0.0163146
1158	0.0130726
1170	0.0117131
1182	0.0103535
1194	0.00868022
1206	0.00847106
1218	0.00951687
1230	0.00951687
1242	0.00983061
1254	0.0108764
1266	0.0100398
1278	0.0082619
1290	0.0087848
1302	0.00847106
1314	0.0082619
1326	0.00888938
1338	0.0105627
1350	0.0134909
1362	0.0138047
1374	0.00941229
1386	0.00857564
1398	0.00784358
1410	0.00805274
1422	0.00742525
1434	0.00752983
1446	0.00721609
1458	0.00742525
1470	0.00805274
1482	0.00721609
1494	0.00732067
1506	0.00752983
1518	0.00752983
1530	0.00711151
1542	0.00742525
1554	0.00773899
1566	0.00732067
1578	0.00784358
1590	0.00679776
1602	0.00721609
1614	0.00711151
1626	0.00700693
1638	0.00711151
1650	0.00679776
1662	0.0060657
1674	0.00679776
1686	0.00690235
1698	0.00627486
1710	0.0065886
1722	0.00637944
1734	0.00669318
1746	0.00711151
1758	0.00648402
1770	0.00711151
1782	0.00700693
1794	0.00648402
1806	0.00648402
1818	0.0060657
1830	0.00617028
1842	0.00637944
1854	0.00637944
1866	0.00679776
1878	0.00648402
1890	0.00690235
1902	0.00648402
1914	0.00617028
1926	0.00543821
1938	0.00554279
1950	0.00522905
1962	0.00554279
1974	0.00596112
1986	0.00564737
1998	0.00554279
2010	0.00575195
2022	0.00617028
2034	0.00690235
2046	0.00784358
2058	0.00669318
2070	0.00847106
2082	0.0082619
2094	0.00554279
2106	0.00564737
2118	0.00564737
2130	0.00522905
2142	0.00596112
2154	0.00575195
2166	0.00533363
2178	0.00564737
2190	0.00596112
2202	0.00564737
2214	0.00585654
2226	0.00585654
2238	0.00533363
2250	0.00564737
2262	0.00554279
2274	0.00585654
2286	0.00491531
2298	0.00366033
2310	0.00125497
2322	0.000732067
2334	0.00230078
2346	0.00501989
2358	0.00115039
2370	0.0101444
2382	0.00815732
2394	0.00690235
2406	0.00585654
2418	0.0060657
2430	0.00648402
2442	0.00637944
2454	0.00700693
2466	0.00711151
2478	0.00773899
2490	0.0087848
2502	0.00742525
2514	0.00690235
2526	0.00700693
2538	0.00700693
2550	0.00679776
2562	0.00700693
2574	0.00742525
2586	0.00742525
2598	0.0065886
2610	0.00669318
2622	0.00491531
2634	0.00501989
2646	0.00512447
2658	0.00397408
2670	0.00721609
2682	0.00815732
2694	0.00742525
2706	0.00815732
2718	0.00784358
2730	0.00763441
2742	0.00784358
2754	0.00784358
2766	0.00836648
2778	0.00773899
2790	0.00773899
2802	0.00794816
2814	0.00742525
2826	0.00742525
2838	0.00773899
2850	0.00784358
2862	0.00909855
2874	0.00763441
2886	0.00836648
2898	0.00836648
2910	0.00794816
2922	0.00784358
2934	0.00773899
2946	0.00742525
2958	0.00732067
2970	0.00805274
2982	0.0082619
2994	0.00637944
3006	0.0065886
3018	0.00732067
3030	0.00847106
3042	0.00700693
3054	0.00742525
3066	0.00773899
3078	0.00732067
3090	0.00847106
3102	0.00700693
3114	0.0065886
3126	0.00763441
3138	0.00585654
3150	0.0065886
3162	0.00679776
3174	0.0065886
3186	0.00564737
3198	0.00575195
3210	0.00711151
3222	0.00512447
3234	0.00470615
3246	0.00690235
3258	0.00449698
3270	0.00690235
3282	0.00575195
3294	0.00585654
3306	0.00334659
3318	0.00512447
3330	0.00554279
3342	0.00512447
3354	0.00470615
3366	0.00512447
3378	0.00617028
3390	0.00376492
3402	0.0043924
3414	0.00501989
3426	0.00376492
3438	0.00355575
3450	0.00355575
3462	0.00407866
3474	0.00376492
3486	0.00428782
3498	0.00303285
3510	0.00334659
3522	0.00376492
3534	0.0021962
3546	0.00491531
3558	0.00282369
3570	0.00250994
3582	0.00115039
3594	0.00449698
3606	0.00230078
3618	0.00303285
3630	0.00481073
3642	0.00250994
3654	0.00250994
3666	0.00501989
3678	0.00324201
3690	0.00334659
3702	0.0021962
3714	0.00156871
3726	0.00125497
3738	0.00334659
3750	0.00470615
3762	0.00355575
3774	0.0021962
3786	0.00240536
3798	0.00188246
3810	0.000941229
3822	0.000732067
3834	0.00115039
3846	0.00240536
3858	0.00449698
3870	0.00303285
3882	0.000732067
3894	0.00376492
3906	0.00135955
3918	0.00261452
3930	0.00585654
3942	0.00376492
3954	0.0060657
3966	0.00303285
