Infrared Spectrum: Ethanol, 2-chloro-
Formula: C 2 H 5 Cl O
CAS: 107-07-3
State: gas
Origin: Sadtler Research Labs Under US-EPA Contract
1/CM	ABSORBANCE
450	0.235248
462	0.0911539
474	0.124582
486	0.113243
498	0.00184075
510	0.0145051
522	0.0284212
534	0.0256969
546	0.0686232
558	0.0522037
570	0.0419691
582	0.0667824
594	0.0346797
606	0.0452825
618	0.0471232
630	0.0544126
642	0.0699485
654	0.146597
666	0.220669
678	0.250416
690	0.170159
702	0.0599348
714	0.0414537
726	0.0364468
738	0.0537499
750	0.115599
762	0.173988
774	0.183118
786	0.0594194
798	0.0342379
810	0.0315873
822	0.0435153
834	0.0544126
846	0.0611129
858	0.0657516
870	0.0513937
882	0.0414537
894	0.0464605
906	0.0809194
918	0.162501
930	0.191438
942	0.18437
954	0.097707
966	0.0660461
978	0.051541
990	0.0675187
1002	0.107205
1014	0.171484
1026	0.257631
1038	0.419986
1050	0.541549
1062	0.702798
1074	0.691091
1086	0.630052
1098	0.353129
1110	0.153077
1122	0.0827601
1134	0.0619228
1146	0.0572105
1158	0.0652362
1170	0.0880615
1182	0.11258
1194	0.149543
1206	0.142106
1218	0.129073
1230	0.0988115
1242	0.0899022
1254	0.0961608
1266	0.118618
1278	0.162354
1290	0.193205
1302	0.218313
1314	0.166919
1326	0.127674
1338	0.143578
1350	0.153813
1362	0.161176
1374	0.186799
1386	0.219786
1398	0.208299
1410	0.15315
1422	0.115673
1434	0.117808
1446	0.134596
1458	0.0987378
1470	0.0657516
1482	0.0463869
1494	0.0340907
1506	0.0262859
1518	0.0222363
1530	0.0170085
1542	0.0166404
1554	0.0129589
1566	0.0115599
1578	0.0120017
1590	0.0106763
1602	0.0095719
1614	0.0108236
1626	0.00971916
1638	0.0103082
1650	0.00949827
1662	0.00913012
1674	0.0100137
1686	0.0125171
1698	0.0115599
1710	0.0105291
1722	0.0114126
1734	0.0116335
1746	0.0119281
1758	0.0123698
1770	0.0132534
1782	0.00964553
1794	0.00817293
1806	0.00758389
1818	0.00655307
1830	0.00633218
1842	0.00699485
1854	0.00692122
1866	0.00728937
1878	0.00640581
1890	0.0080993
1902	0.0088356
1914	0.0108236
1926	0.0109709
1938	0.0104555
1950	0.00839382
1962	0.00670033
1974	0.00670033
1986	0.00684759
1998	0.00625855
2010	0.00640581
2022	0.00677396
2034	0.00670033
2046	0.00721574
2058	0.00795204
2070	0.00780478
2082	0.00743663
2094	0.00714211
2106	0.00824656
2118	0.0095719
2130	0.0103082
2142	0.0100137
2154	0.00846745
2166	0.00633218
2178	0.00449143
2190	0.00463869
2202	0.0051541
2214	0.00618492
2226	0.00714211
2238	0.00670033
2250	0.00670033
2262	0.00699485
2274	0.00647944
2286	0.00633218
2298	0.00427054
2310	0.00228253
2322	0.00176712
2334	0.00316609
2346	0.00390239
2358	0.00184075
2370	0.00670033
2382	0.00692122
2394	0.00552225
2406	0.0051541
2418	0.00508047
2430	0.0051541
2442	0.00625855
2454	0.00647944
2466	0.00670033
2478	0.00647944
2490	0.00566951
2502	0.00537499
2514	0.00566951
2526	0.00596403
2538	0.0066267
2550	0.0058904
2562	0.00566951
2574	0.00478595
2586	0.00390239
2598	0.00456506
2610	0.00471232
2622	0.00537499
2634	0.00633218
2646	0.0066267
2658	0.00596403
2670	0.00714211
2682	0.0100137
2694	0.0118544
2706	0.0139161
2718	0.0159041
2730	0.0175976
2742	0.0166404
2754	0.0172294
2766	0.0166404
2778	0.0147996
2790	0.014137
2802	0.0137688
2814	0.0182602
2826	0.0243715
2838	0.0374777
2850	0.0649417
2862	0.112359
2874	0.174429
2886	0.213969
2898	0.189671
2910	0.178921
2922	0.199243
2934	0.270222
2946	0.292974
2958	0.342085
2970	0.285243
2982	0.260208
2994	0.162428
3006	0.111476
3018	0.0839382
3030	0.0545598
3042	0.032839
3054	0.0156832
3066	0.0110445
3078	0.00890923
3090	0.00743663
3102	0.00655307
3114	0.00493321
3126	0.0044178
3138	0.0051541
3150	0.00500684
3162	0.00508047
3174	0.00449143
3186	0.0044178
3198	0.00508047
3210	0.00544862
3222	0.00449143
3234	0.00478595
3246	0.00427054
3258	0.00449143
3270	0.00471232
3282	0.00537499
3294	0.00618492
3306	0.00596403
3318	0.00404965
3330	0.0036815
3342	0.00427054
3354	0.00316609
3366	0.00478595
3378	0.00412328
3390	0.0036815
3402	0.00301883
3414	0.00287157
3426	0.00242979
3438	0.00242979
3450	0.00287157
3462	0.00213527
3474	0.00640581
3486	0.00817293
3498	0.0058904
3510	0.00478595
3522	0.00272431
3534	0.00404965
3546	0.00169349
3558	0.00301883
3570	0.00508047
3582	0.0114863
3594	0.027464
3606	0.0646471
3618	0.148659
3630	0.152561
3642	0.168686
3654	0.132902
3666	0.117734
3678	0.101094
3690	0.0644999
3702	0.0215736
3714	0.0139161
3726	0.00802567
3738	0.0106027
3750	0.013327
3762	0.0134743
3774	0.0112654
3786	0.0125171
3798	0.00508047
3810	0.00485958
3822	0.00500684
3834	0.00213527
3846	0.00375513
3858	0.00647944
3870	0.0014726
3882	0.00861471
3894	0.0036815
3906	0.00375513
3918	0.0125907
3930	0.00471232
3942	0.00699485
3954	0.00854108
3966	0.00611129
