Infrared Spectrum: ISOBUTYRIC ACID
Formula: C4 H8 O2
CAS: 79-31-2
State: LIQUID
Class: COBLENTZ
Instrument: Not specified, most likely a prism, grating, or hybrid spectrometer.
Sampling: TRANSMISSION
Path length: 0.0015 CM
Resolution: 4
Origin: WYANDOTTE CHEMICALS CORP., WYANDOTTE, MICHIGAN, USA
MICROMETERS	TRANSMITTANCE
2.054	0.965
2.09484	0.964
2.13568	0.96
2.17651	0.943
2.21735	0.923
2.25819	0.93
2.29903	0.928
2.33987	0.921
2.3807	0.916
2.42154	0.919
2.46238	0.918
2.50322	0.918
2.54406	0.93
2.58489	0.928
2.62573	0.928
2.66657	0.923
2.70741	0.916
2.74825	0.908
2.78908	0.867
2.82992	0.831
2.87076	0.792
2.9116	0.735
2.95244	0.666
2.99327	0.507
3.03411	0.373
3.07495	0.238
3.11579	0.17
3.15663	0.109
3.19746	0.074
3.2383	0.056
3.27914	0.054
3.31998	0.042
3.36082	0.03
3.40165	0.037
3.44249	0.042
3.48333	0.047
3.52417	0.09
3.56501	0.127
3.60584	0.151
3.64668	0.16
3.68752	0.163
3.72836	0.17
3.7692	0.144
3.81003	0.161
3.85087	0.233
3.89171	0.235
3.93255	0.211
3.97339	0.265
4.01422	0.366
4.05506	0.419
4.0959	0.434
4.13674	0.471
4.17758	0.533
4.21841	0.565
4.25925	0.582
4.30009	0.604
4.34093	0.625
4.38177	0.65
4.4226	0.676
4.46344	0.674
4.50428	0.679
4.54512	0.683
4.58596	0.698
4.62679	0.701
4.66763	0.691
4.70847	0.693
4.74931	0.703
4.79015	0.724
4.83098	0.718
4.87182	0.717
4.91266	0.703
4.9535	0.684
4.99434	0.681
5.03517	0.681
5.07601	0.669
5.11685	0.666
5.15769	0.664
5.19853	0.66
5.23936	0.654
5.2802	0.652
5.32104	0.647
5.36188	0.63
5.40272	0.609
5.44355	0.589
5.48439	0.574
5.52523	0.55
5.56607	0.543
5.60691	0.526
5.64775	0.495
5.68858	0.349
5.72942	0.146
5.77026	0.051
5.8111	0.025
5.85194	0.028
5.89277	0.04
5.93361	0.117
5.97445	0.265
6.01529	0.369
6.05613	0.461
6.09696	0.526
6.1378	0.565
6.17864	0.589
6.21948	0.613
6.26032	0.637
6.30115	0.649
6.34199	0.652
6.38283	0.64
6.42367	0.64
6.46451	0.635
6.50534	0.63
6.54618	0.623
6.58702	0.616
6.62786	0.577
6.6687	0.495
6.70953	0.177
6.75037	0.078
6.79121	0.187
6.83205	0.269
6.87289	0.277
6.91372	0.321
6.95456	0.26
6.9954	0.163
7.03624	0.107
7.07708	0.218
7.11791	0.35
7.15875	0.356
7.19959	0.306
7.24043	0.441
7.28127	0.347
7.3221	0.42
7.36294	0.48
7.40378	0.388
7.44462	0.304
7.48546	0.267
7.52629	0.289
7.56713	0.306
7.60797	0.316
7.64881	0.231
7.68965	0.139
7.73048	0.095
7.77132	0.114
7.81216	0.168
7.853	0.209
7.89384	0.192
7.93467	0.122
7.97551	0.054
8.01635	0.028
8.05719	0.027
8.09803	0.039
8.13886	0.088
8.1797	0.18
8.22054	0.248
8.26138	0.287
8.30222	0.325
8.34305	0.354
8.38389	0.383
8.42473	0.412
8.46557	0.396
8.50641	0.241
8.54724	0.153
8.58808	0.265
8.62892	0.349
8.66976	0.402
8.7106	0.448
8.75143	0.473
8.79227	0.482
8.83311	0.456
8.87395	0.4
8.91479	0.35
8.95562	0.318
8.99646	0.306
9.0373	0.238
9.07814	0.25
9.11898	0.33
9.15981	0.335
9.20065	0.286
9.24149	0.275
9.28233	0.393
9.32317	0.482
9.364	0.548
9.40484	0.58
9.44568	0.601
9.48652	0.623
9.52736	0.637
9.56819	0.649
9.60903	0.65
9.64987	0.65
9.69071	0.652
9.73155	0.654
9.77238	0.65
9.81322	0.642
9.85406	0.64
9.8949	0.625
9.93574	0.611
9.97657	0.597
10.0174	0.572
10.0583	0.551
10.0991	0.514
10.1399	0.49
10.1808	0.449
10.2216	0.4
10.2624	0.347
10.3033	0.316
10.3441	0.269
10.385	0.24
10.4258	0.209
10.4666	0.183
10.5075	0.166
10.5483	0.149
10.5891	0.137
10.63	0.131
10.6708	0.129
10.7117	0.129
10.7525	0.132
10.7933	0.143
10.8342	0.16
10.875	0.18
10.9158	0.18
10.9567	0.143
10.9975	0.146
11.0384	0.204
11.0792	0.25
11.12	0.282
11.1609	0.299
11.2017	0.33
11.2426	0.347
11.2834	0.359
11.3242	0.378
11.3651	0.391
11.4059	0.403
11.4467	0.417
11.4876	0.427
11.5284	0.439
11.5693	0.448
11.6101	0.454
11.6509	0.459
11.6918	0.471
11.7326	0.48
11.7734	0.483
11.8143	0.485
11.8551	0.488
11.896	0.495
11.9368	0.5
11.9776	0.505
12.0185	0.505
12.0593	0.505
12.1002	0.505
12.141	0.502
12.1818	0.495
12.2227	0.473
12.2635	0.424
12.3043	0.337
12.3452	0.229
12.386	0.204
12.4269	0.287
12.4677	0.369
12.5085	0.424
12.5494	0.449
12.5902	0.471
12.631	0.492
12.6719	0.5
12.7127	0.521
12.7536	0.54
12.7944	0.56
12.8352	0.575
12.8761	0.589
12.9169	0.597
12.9577	0.604
12.9986	0.611
13.0394	0.621
13.0803	0.623
13.1211	0.632
13.1619	0.632
13.2028	0.633
13.2436	0.632
13.2845	0.63
13.3253	0.63
13.3661	0.63
13.407	0.63
13.4478	0.633
13.4886	0.645
13.5295	0.649
13.5703	0.654
13.6112	0.659
13.652	0.666
13.6928	0.674
13.7337	0.674
13.7745	0.674
13.8153	0.676
13.8562	0.681
13.897	0.681
13.9379	0.683
13.9787	0.684
14.0195	0.683
14.0604	0.684
14.1012	0.686
14.1421	0.686
14.1829	0.688
14.2237	0.688
14.2646	0.691
14.3054	0.688
14.3462	0.684
14.3871	0.684
14.4279	0.683
14.4688	0.678
14.5096	0.678
14.5504	0.676
14.5913	0.667
14.6321	0.667
14.6729	0.662
14.7138	0.66
14.7546	0.657
14.7955	0.654
14.8363	0.647
14.8771	0.645
14.918	0.649
14.9588	0.635
14.9996	0.613
15.0405	0.596
15.0813	0.603
15.1222	0.614
15.163	0.616
15.2038	0.613
15.2447	0.604
15.2855	0.597
15.3264	0.589
15.3672	0.579
15.408	0.563
15.4489	0.562
15.4897	0.548
15.5305	0.54
15.5714	0.534
15.6122	0.528
15.6531	0.509
15.6939	0.5
15.7347	0.497
15.7756	0.492
15.8164	0.488
15.8572	0.488
15.8981	0.487
15.9389	0.487
15.9798	0.49
16.0206	0.49
