Infrared Spectrum: Propanoic acid, 2-methyl-
Formula: C 4 H 8 O 2
CAS: 79-31-2
State: gas
Origin: Sadtler Research Labs Under US-EPA Contract
1/CM	ABSORBANCE
450	0.00580761
462	0.0105182
474	0.0264569
486	0.0379431
498	0.043299
510	0.0333615
522	0.0405887
534	0.0566565
546	0.0740148
558	0.109699
570	0.149514
582	0.170744
594	0.155967
606	0.116604
618	0.0714336
630	0.0347811
642	0.015616
654	0.00864689
666	0.00613026
678	0.00374268
690	0.00406533
702	0.00896953
714	0.01439
726	0.0238757
738	0.0372332
750	0.0444605
762	0.0487194
774	0.0468481
786	0.0332324
798	0.0185198
810	0.00651743
822	0.00296833
834	0.00187134
846	0.000580761
858	0.000774348
870	0.000774348
882	0.00238757
894	0.00548497
906	0.00684007
918	0.00638837
930	0.00451703
942	0.00387174
954	0.00387174
966	0.0044525
978	0.00548497
990	0.00593667
1002	0.00742084
1014	0.0152288
1026	0.0389755
1038	0.0714336
1050	0.0892436
1062	0.100407
1074	0.155257
1086	0.259794
1098	0.35136
1110	0.352586
1122	0.293607
1134	0.261988
1146	0.216688
1158	0.14661
1170	0.12609
1182	0.124605
1194	0.102085
1206	0.0565274
1218	0.027812
1230	0.0196168
1242	0.016713
1254	0.0175519
1266	0.020004
1278	0.0225206
1290	0.0258761
1302	0.0311675
1314	0.0340068
1326	0.0322645
1338	0.0356845
1350	0.043428
1362	0.0488485
1374	0.0514941
1386	0.0600765
1398	0.0653679
1410	0.0522685
1422	0.0237467
1434	0.0205202
1446	0.0276829
1458	0.0462028
1470	0.0617543
1482	0.0560112
1494	0.0328453
1506	0.0119379
1518	0.00722725
1530	0.00522685
1542	0.00496873
1554	0.00283928
1566	0.00212946
1578	0.00206493
1590	0.00109699
1602	0.00129058
1614	0.00129058
1626	0.00212946
1638	0.00258116
1650	0.00367815
1662	0.00419439
1674	0.00580761
1686	0.00742084
1698	0.0106473
1710	0.0174874
1722	0.0403306
1734	0.078919
1746	0.151514
1758	0.364202
1770	0.542431
1782	0.598506
1794	0.402596
1806	0.124154
1818	0.0442669
1830	0.0167775
1842	0.00819518
1854	0.00574308
1866	0.00503326
1878	0.00483968
1890	0.00432344
1902	0.00296833
1914	0.00212946
1926	0.0015487
1938	0.00129058
1950	0.00148417
1962	0.00109699
1974	0.000580761
1986	0.00064529
1998	0.00064529
2010	0.00109699
2022	0.000709819
2034	0.00122605
2046	0.00129058
2058	0.00129058
2070	0.00129058
2082	0.00135511
2094	0.00116152
2106	0.000903406
2118	0.000451703
2130	0.000451703
2142	0.000387174
2154	0.000580761
2166	0.000709819
2178	0.00109699
2190	0.00206493
2202	0.00206493
2214	0.00225852
2226	0.00187134
2238	0.00187134
2250	0.00129058
2262	0.00116152
2274	0.00122605
2286	0.000516232
2298	0.000516232
2310	0
2322	0
2334	0
2346	0.00109699
2358	0.000193587
2370	0.00193587
2382	0.00219399
2394	0.00116152
2406	0.000774348
2418	0.000838877
2430	0.00064529
2442	0.000838877
2454	0.000967935
2466	0.00103246
2478	0.00103246
2490	0.00161323
2502	0.00174228
2514	0.00174228
2526	0.00180681
2538	0.0024521
2550	0.0024521
2562	0.0020004
2574	0.0020004
2586	0.00161323
2598	0.00141964
2610	0.00174228
2622	0.00219399
2634	0.00283928
2646	0.00283928
2658	0.00283928
2670	0.00335551
2682	0.00251663
2694	0.00206493
2706	0.0020004
2718	0.00264569
2730	0.00374268
2742	0.00380721
2754	0.00477515
2766	0.00471062
2778	0.00438797
2790	0.0049042
2802	0.00516232
2814	0.00606573
2826	0.00709819
2838	0.00858236
2850	0.00967935
2862	0.0147126
2874	0.0300705
2886	0.0491711
2898	0.0554304
2910	0.0560112
2922	0.0614316
2934	0.074531
2946	0.0903406
2958	0.0973743
2970	0.140028
2982	0.208106
2994	0.191845
3006	0.0975678
3018	0.0318128
3030	0.0147126
3042	0.00980841
3054	0.00877594
3066	0.00871142
3078	0.00825971
3090	0.008905
3102	0.00903406
3114	0.00851783
3126	0.00864689
3138	0.00864689
3150	0.00825971
3162	0.00877594
3174	0.00980841
3186	0.00922765
3198	0.00896953
3210	0.00909859
3222	0.00813065
3234	0.00754989
3246	0.00677555
3258	0.0069046
3270	0.00580761
3282	0.00587214
3294	0.00522685
3306	0.00496873
3318	0.00509779
3330	0.00471062
3342	0.00419439
3354	0.00432344
3366	0.00438797
3378	0.00348457
3390	0.00406533
3402	0.00412986
3414	0.00406533
3426	0.00406533
3438	0.00367815
3450	0.00367815
3462	0.00348457
3474	0.00419439
3486	0.00425891
3498	0.00483968
3510	0.00593667
3522	0.00787254
3534	0.0108409
3546	0.0116797
3558	0.0463964
3570	0.144029
3582	0.161903
3594	0.108667
3606	0.016584
3618	0.0044525
3630	0.00283928
3642	0.00412986
3654	0.00264569
3666	0.00380721
3678	0.00271022
3690	0.00122605
3702	0.00212946
3714	0.00167775
3726	0.00064529
3738	0.000709819
3750	0
3762	0.00380721
3774	0.00348457
3786	0.00290381
3798	0.00380721
3810	0.00348457
3822	0.00219399
3834	0.00296833
3846	0.00406533
3858	0.0035491
3870	0.00342004
3882	0.00290381
3894	0.00374268
3906	0.00187134
3918	0.00264569
3930	0.00361362
3942	0.00335551
3954	0.00458156
3966	0.00380721
