Infrared Spectrum: PROPANOIC ACID, 2-METHYL-
Formula: C4 H8 O2
CAS: 79-31-2
State: SOLUTION (2% IN CCl4 FOR 3800-1300, 2% IN CS2 FOR 1300-650, 2% IN CCl4 FOR 650-250 CM^-^1) VERSUS SOLVENT
Boiling point: 153 C
Class: COBLENTZ II
Instrument: PERKIN-ELMER 521 (GRATING)
Instrument parameters: GRATING CHANGES AT 2000, 630 CM^-^1
Sampling: TRANSMISSION
Path length: 0.011, 0.010, AND 0.011 CM (CsBr CELL)
Resolution: 4
Origin: DOW CORNING CORP.
1/CM	TRANSMITTANCE
277.79	0.775
286.652	0.774
295.514	0.78
304.377	0.778
313.239	0.78
322.101	0.779
330.963	0.787
339.825	0.788
348.687	0.784
357.55	0.778
366.412	0.786
375.274	0.81
384.136	0.822
392.998	0.818
401.86	0.807
410.723	0.802
419.585	0.798
428.447	0.798
437.309	0.802
446.171	0.811
455.034	0.827
463.896	0.835
472.758	0.84
481.62	0.843
490.482	0.843
499.344	0.838
508.207	0.827
517.069	0.803
525.931	0.786
534.793	0.771
543.655	0.786
552.518	0.814
561.38	0.814
570.242	0.807
579.104	0.799
587.966	0.795
596.828	0.795
605.691	0.8
614.553	0.81
623.415	0.819
632.277	0.831
641.139	0.847
650.001	0.887
658.864	0.902
667.726	0.91
676.588	0.911
685.45	0.918
694.312	0.925
703.175	0.93
712.037	0.938
720.899	0.934
729.761	0.931
738.623	0.929
747.485	0.93
756.348	0.931
765.21	0.933
774.072	0.923
782.934	0.919
791.796	0.907
800.659	0.847
809.521	0.85
818.383	0.907
827.245	0.906
836.107	0.901
844.969	0.886
853.832	0.872
862.694	0.866
871.556	0.847
880.418	0.834
889.28	0.807
898.142	0.762
907.005	0.687
915.867	0.693
924.729	0.64
933.591	0.62
942.453	0.632
951.316	0.704
960.178	0.772
969.04	0.838
977.902	0.883
986.764	0.906
995.626	0.919
1004.49	0.935
1013.35	0.939
1022.21	0.938
1031.08	0.935
1039.94	0.926
1048.8	0.922
1057.66	0.909
1066.52	0.858
1075.39	0.778
1084.25	0.815
1093.11	0.758
1101.97	0.835
1110.83	0.85
1119.7	0.878
1128.56	0.902
1137.42	0.905
1146.28	0.89
1155.15	0.835
1164.01	0.739
1172.87	0.867
1181.73	0.878
1190.59	0.862
1199.46	0.844
1208.32	0.795
1217.18	0.697
1226.04	0.479
1234.91	0.304
1243.77	0.5481
1252.63	0.733
1261.49	0.748
1270.35	0.708
1279.22	0.616
1288.08	0.617
1296.94	0.719
1305.8	0.732
1314.66	0.723
1323.53	0.704
1332.39	0.697
1341.25	0.733
1350.11	0.775
1358.98	0.776
1367.84	0.712
1376.7	0.767
1385.56	0.683
1394.42	0.75
1403.29	0.723
1412.15	0.589
1421.01	0.573
1429.87	0.693
1438.74	0.735
1447.6	0.707
1456.46	0.689
1465.32	0.649
1474.18	0.437
1483.05	0.72
1491.91	0.8
1500.77	0.804
1509.63	0.8
1518.49	0.795
1527.36	0.787
1536.22	0.776
1545.08	0.774
1553.94	0.782
1562.81	0.792
1571.67	0.796
1580.53	0.795
1589.39	0.798
1598.25	0.802
1607.12	0.804
1615.98	0.806
1624.84	0.8
1633.7	0.788
1642.57	0.778
1651.43	0.764
1660.29	0.744
1669.15	0.724
1678.01	0.675
1686.88	0.5329
1695.74	0.3459
1704.6	0.041
1713.46	0.036
1722.33	0.133
1731.19	0.446
1740.05	0.631
1748.91	0.665
1757.77	0.672
1766.64	0.752
1775.5	0.787
1784.36	0.796
1793.22	0.802
1802.08	0.802
1810.95	0.803
1819.81	0.804
1828.67	0.807
1837.53	0.812
1846.4	0.819
1855.26	0.826
1864.12	0.831
1872.98	0.83
1881.84	0.832
1890.71	0.834
1899.57	0.834
1908.43	0.832
1917.29	0.834
1926.16	0.831
1935.02	0.832
1943.88	0.834
1952.74	0.834
1961.6	0.834
1970.47	0.835
1979.33	0.834
1988.19	0.834
1997.05	0.843
2005.91	0.86
2014.78	0.862
2023.64	0.863
2032.5	0.863
2041.36	0.863
2050.23	0.8649
2059.09	0.867
2067.95	0.87
2076.81	0.87
2085.67	0.867
2094.54	0.868
2103.4	0.87
2112.26	0.868
2121.12	0.8666
2129.99	0.8631
2138.85	0.863
2147.71	0.863
2156.57	0.8634
2165.43	0.8621
2174.3	0.86
2183.16	0.862
2192.02	0.864
2200.88	0.866
2209.74	0.864
2218.61	0.8639
2227.47	0.8613
2236.33	0.8581
2245.19	0.8596
2254.06	0.858
2262.92	0.86
2271.78	0.859
2280.64	0.8573
2289.5	0.8552
2298.37	0.8533
2307.23	0.8483
2316.09	0.844
2324.95	0.8416
2333.82	0.839
2342.68	0.8384
2351.54	0.838
2360.4	0.839
2369.26	0.838
2378.13	0.836
2386.99	0.832
2395.85	0.831
2404.71	0.828
2413.57	0.823
2422.44	0.8107
2431.3	0.807
2440.16	0.8035
2449.02	0.7947
2457.89	0.7875
2466.75	0.782
2475.61	0.778
2484.47	0.7743
2493.33	0.7695
2502.2	0.7591
2511.06	0.7448
2519.92	0.736
2528.78	0.7262
2537.65	0.7062
2546.51	0.6834
2555.37	0.6723
2564.23	0.6752
2573.09	0.6847
2581.96	0.6992
2590.82	0.699
2599.68	0.6947
2608.54	0.6883
2617.41	0.6777
2626.27	0.6574
2635.13	0.6319
2643.99	0.629
2652.85	0.632
2661.72	0.6385
2670.58	0.6484
2679.44	0.6566
2688.3	0.66
2697.16	0.66
2706.03	0.657
2714.89	0.656
2723.75	0.652
2732.61	0.6484
2741.48	0.643
2750.34	0.643
2759.2	0.645
2768.06	0.645
2776.92	0.6439
2785.79	0.6333
2794.65	0.629
2803.51	0.6234
2812.37	0.6159
2821.24	0.5998
2830.1	0.5838
2838.96	0.5663
2847.82	0.5498
2856.68	0.5309
2865.55	0.4999
2874.41	0.4445
2883.27	0.459
2892.13	0.4625
2900.99	0.453
2909.86	0.437
2918.72	0.4221
2927.58	0.399
2936.44	0.385
2945.31	0.4157
2954.17	0.4151
2963.03	0.389
2971.89	0.2867
2980.75	0.272
2989.62	0.3736
2998.48	0.4472
3007.34	0.4869
3016.2	0.4904
3025.07	0.4949
3033.93	0.498
3042.79	0.5009
3051.65	0.5062
3060.51	0.5138
3069.38	0.517
3078.24	0.5198
3087.1	0.521
3095.96	0.5238
3104.82	0.5334
3113.69	0.5442
3122.55	0.5627
3131.41	0.5726
3140.27	0.5884
3149.14	0.6005
3158	0.6164
3166.86	0.628
3175.72	0.637
3184.58	0.6507
3193.45	0.6583
3202.31	0.674
3211.17	0.6863
3220.03	0.6983
3228.9	0.709
3237.76	0.7198
3246.62	0.7283
3255.48	0.7408
3264.34	0.7559
3273.21	0.7616
3282.07	0.774
3290.93	0.7823
3299.79	0.7918
3308.65	0.7983
3317.52	0.8033
3326.38	0.8095
3335.24	0.8165
3344.1	0.82
3352.97	0.8247
3361.83	0.8332
3370.69	0.8405
3379.55	0.8437
3388.41	0.8525
3397.28	0.856
3406.14	0.8564
3415	0.8587
3423.86	0.86
3432.73	0.8637
3441.59	0.8662
3450.45	0.868
3459.31	0.8684
3468.17	0.8703
3477.04	0.871
3485.9	0.871
3494.76	0.871
3503.62	0.871
3512.48	0.8697
3521.35	0.8633
3530.21	0.859
3539.07	0.8693
3547.93	0.8756
3556.8	0.8826
3565.66	0.885
3574.52	0.887
3583.38	0.887
3592.24	0.889
3601.11	0.8901
3609.97	0.8882
3618.83	0.8901
3627.69	0.89
3636.56	0.891
3645.42	0.8904
3654.28	0.89
3663.14	0.887
3672	0.887
3680.87	0.887
3689.73	0.89
3698.59	0.891
3707.45	0.891
3716.32	0.8921
3725.18	0.893
3734.04	0.893
3742.9	0.893
3751.76	0.893
3760.63	0.893
3769.49	0.894
3778.35	0.894
3787.21	0.894
