Infrared Spectrum: 2-Iodo-1,1,1-trifluoroethane
Formula: C 2 H 2 F 3 I
CAS: 353-83-3
State: gas
Origin: EPA-IR VAPOR PHASE LIBRARY
1/CM	ABSORBANCE
501.5	0.005822
513.074	0.008422
524.648	0.005872
536.222	0.005042
547.796	0.004752
559.37	0.003082
570.944	0.002172
582.518	0.002432
594.092	0.004302
605.666	0.011742
617.24	0.055962
628.814	0.095842
640.388	0.045052
651.962	0.021412
663.536	0.045712
675.11	0.038142
686.684	0.006222
698.258	0.004092
709.832	0.004082
721.406	0.002302
732.98	0.001872
744.554	0.001702
756.128	0.0012039
767.702	0.0009026
779.276	0.0009775
790.85	0.0013429
802.423	0.002182
813.997	0.004012
825.571	0.010702
837.145	0.021052
848.719	0.015472
860.293	0.003952
871.867	0.001742
883.441	0.001672
895.015	0.002062
906.589	0.002332
918.163	0.002252
929.737	0.002602
941.311	0.002992
952.885	0.003972
964.459	0.005082
976.033	0.005792
987.607	0.006032
999.181	0.007532
1010.76	0.012132
1022.33	0.026302
1033.9	0.072822
1045.48	0.175302
1057.05	0.270582
1068.63	0.228992
1080.2	0.123652
1091.77	0.114912
1103.35	0.302262
1114.92	0.694022
1126.49	0.698882
1138.07	0.275692
1149.64	0.090652
1161.22	0.027222
1172.79	0.021352
1184.36	0.030032
1195.94	0.055762
1207.51	0.118642
1219.09	0.189492
1230.66	0.192582
1242.23	0.182482
1253.81	0.340412
1265.38	0.633562
1276.96	0.825052
1288.53	0.584842
1300.1	0.179552
1311.68	0.036032
1323.25	0.024442
1334.83	0.032632
1346.4	0.032942
1357.97	0.022602
1369.55	0.015162
1381.12	0.012132
1392.7	0.010992
1404.27	0.017942
1415.84	0.048882
1427.42	0.091642
1438.99	0.059932
1450.57	0.018932
1462.14	0.027272
1473.71	0.023052
1485.29	0.005942
1496.86	0.003702
1508.44	0.002982
1520.01	0.002172
1531.58	0.001412
1543.16	0.001442
1554.73	0.001742
1566.31	0.002182
1577.88	0.002022
1589.45	0.001662
1601.03	0.001742
1612.6	0.002462
1624.18	0.003322
1635.75	0.003402
1647.32	0.002692
1658.9	0.001822
1670.47	0.0013055
1682.05	0.0009859
1693.62	0.000747
1705.19	0.00075
1716.77	0.0010977
1728.34	0.001492
1739.92	0.001792
1751.49	0.001702
1763.06	0.0013941
1774.64	0.001652
1786.21	0.001952
1797.79	0.001842
1809.36	0.001229
1820.93	0.0009635
1832.51	0.0012115
1844.08	0.001522
1855.66	0.001642
1867.23	0.002192
1878.8	0.003142
1890.38	0.003662
1901.95	0.003112
1913.53	0.002072
1925.1	0.0013187
1936.67	0.0013145
1948.25	0.001792
1959.82	0.001972
1971.4	0.001662
1982.97	0.001099
1994.54	0.0008522
2006.12	0.0009315
2017.69	0.0014046
2029.27	0.002072
2040.84	0.002552
2052.41	0.002382
2063.99	0.002032
2075.56	0.002232
2087.14	0.003392
2098.71	0.005442
2110.28	0.007062
2121.86	0.005902
2133.43	0.002742
2145.01	0.0011917
2156.58	0.0013078
2168.15	0.001642
2179.73	0.001822
2191.3	0.001662
2202.88	0.001682
2214.45	0.002462
2226.02	0.003872
2237.6	0.004212
2249.17	0.002792
2260.74	0.002112
2272.32	0.001762
2283.89	0.001462
2295.47	0.001742
2307.04	0.002442
2318.61	0.003382
2330.19	0.004482
2341.76	0.004222
2353.34	0.002762
2364.91	0.001912
2376.48	0.001752
2388.06	0.002232
2399.63	0.002682
2411.21	0.002402
2422.78	0.001562
2434.35	0.0010549
2445.93	0.0009741
2457.5	0.0010506
2469.08	0.0013413
2480.65	0.001582
2492.22	0.0013281
2503.8	0.0007537
2515.37	0.0008006
2526.95	0.0012194
2538.52	0.001662
2550.09	0.001962
2561.67	0.001802
2573.24	0.001442
2584.82	0.0007757
2596.39	0.0003652
2607.96	0.0003569
2619.54	0.00045732
2631.11	0.00046309
2642.69	0.0005776
2654.26	0.00047829
2665.83	0.00029
2677.41	0.00024
2688.98	0.000301
2700.56	0.00043116
2712.13	0.0003151
2723.7	0.0003326
2735.28	0.000232
2746.85	0.000171
2758.43	0.000125
2770	0.000172
2781.57	0.000171
2793.15	0.000119
2804.72	0.00017
2816.3	0.0003719
2827.87	0.0007495
2839.44	0.0010615
2851.02	0.0007467
2862.59	0.000255
2874.17	0.000136
2885.74	0.000176
2897.31	0.000196
2908.89	0.000137
2920.46	0.000178
2932.04	0.000167
2943.61	0.00021
2955.18	0.0003133
2966.76	0.0007209
2978.33	0.003312
2989.91	0.013942
3001.48	0.013022
3013.05	0.001942
3024.63	0.0007464
3036.2	0.0010914
3047.78	0.001542
3059.35	0.0011619
3070.92	0.0005521
3082.5	0.0003619
3094.07	0.000221
3105.65	0.000207
3117.22	0.000214
3128.79	0.000146
3140.37	8.6e-05
3151.94	0.000179
3163.52	9.6e-05
3175.09	0.000225
3186.66	0.000159
3198.24	0.000203
3209.81	0.000126
3221.39	4.7e-05
3232.96	0.000208
3244.53	0.000109
3256.11	0.00017
3267.68	0.0001
3279.26	0.000178
3290.83	0.000236
3302.4	0.000214
3313.98	0.000183
3325.55	0.000263
3337.13	0.000347
3348.7	0.0003622
3360.27	0.000203
3371.85	0.000368
3383.42	0.0003332
3395	0.000251
3406.57	0.0003602
3418.14	0.0003867
3429.72	0.0003135
3441.29	0.000119
3452.86	0.000294
3464.44	0.000235
3476.01	0.000335
3487.59	0.0003305
3499.16	0.0003774
3510.73	0.000277
3522.31	0.000282
3533.88	0.000242
3545.46	0.0003624
3557.03	0.000231
3568.6	0.0003655
3580.18	0.000285
3591.75	0.000256
3603.33	0.000249
3614.9	0.000293
3626.47	0.000304
3638.05	0.00043317
3649.62	0.0005278
3661.2	0.0006882
3672.77	0.000688
3684.34	0.0004965
3695.92	0.0005143
3707.49	0.0003279
3719.07	0.000301
3730.64	0.0003577
3742.21	0.000418543
3753.79	0.000285
3765.36	0.000292
3776.94	0.00031
3788.51	0.0004015
3800.08	0.0006861
3811.66	0.0006103
3823.23	0.0005201
3834.81	0.00048864
3846.38	0.0006751
3857.95	0.0010063
3869.53	0.0009308
3881.1	0.0005229
3892.68	0.000229
3904.25	0.000261
3915.82	0.000224
3927.4	0.000298
3938.97	0.00014
3950.55	0.000253
3962.12	0.0003544
3973.69	0.000248
3985.27	0.00032
3996.84	0.000218
