Infrared Spectrum: 1-Pentyne
Formula: C 5 H 8
CAS: 627-19-0
State: gas
Instrument: HP-GC/MS/IRD
Origin: NIST Mass Spectrometry Data Center
1/CM	ABSORBANCE
550	0.0011648
562	0.0006144
574	0.0007808
586	0.0014208
598	0.0035072
610	0.0102912
622	0.0309504
634	0.064
646	0.0335232
658	0.0100224
670	0.0027776
682	0.0009024
694	0.0003776
706	0.0002048
718	0.0001408
730	0.0002048
742	0.0002816
754	0.0003712
766	0.0003456
778	0.000288
790	0.0001216
802	8.96e-05
814	0.000128
826	0.0002752
838	0.0003904
850	0.000576
862	0.0007232
874	0.000768
886	0.00064
898	0.0005376
910	0.0006592
922	0.0007424
934	0.0007488
946	0.0005888
958	0.0003072
970	0.0001344
982	0.0001088
994	8.32e-05
1006	7.68e-05
1018	0.0001536
1030	0.000192
1042	0.0002176
1054	0.0003968
1066	0.0006784
1078	0.0008192
1090	0.0008384
1102	0.0004224
1114	0.0003264
1126	0.000128
1138	8.96e-05
1150	1.92e-05
1162	8.96e-05
1174	0.0001216
1186	0.0001152
1198	0.0003776
1210	0.0009088
1222	0.0026304
1234	0.0083648
1246	0.0108608
1258	0.011456
1270	0.0062272
1282	0.0024384
1294	0.0014592
1306	0.0012544
1318	0.0020416
1330	0.0025408
1342	0.0026112
1354	0.001952
1366	0.0013696
1378	0.0018112
1390	0.0019712
1402	0.0021248
1414	0.0019392
1426	0.0027776
1438	0.0039616
1450	0.0048
1462	0.004704
1474	0.0037184
1486	0.0026176
1498	0.0015488
1510	0.0008832
1522	0.0005504
1534	0.0003456
1546	0.0003072
1558	0.0003264
1570	0.0002752
1582	0.0002048
1594	0.000192
1606	0.0001664
1618	0.0001664
1630	0.0001024
1642	8.96e-05
1654	0.0001152
1666	0.0001024
1678	6.4e-05
1690	3.2e-05
1702	5.76e-05
1714	7.68e-05
1726	1.92e-05
1738	5.12e-05
1750	6.4e-05
1762	2.56e-05
1774	2.56e-05
1786	3.2e-05
1798	2.56e-05
1810	3.2e-05
1822	0
1834	3.84e-05
1846	3.84e-05
1858	4.48e-05
1870	6.4e-05
1882	0.0001024
1894	5.12e-05
1906	6.4e-06
1918	5.76e-05
1930	3.84e-05
1942	7.04e-05
1954	7.04e-05
1966	8.96e-05
1978	7.04e-05
1990	7.04e-05
2002	3.84e-05
2014	1.92e-05
2026	4.48e-05
2038	7.04e-05
2050	5.76e-05
2062	8.96e-05
2074	0.0002304
2086	0.0006144
2098	0.001376
2110	0.0022016
2122	0.0023232
2134	0.0016192
2146	0.0004416
2158	0.0001536
2170	8.32e-05
2182	5.76e-05
2194	5.76e-05
2206	5.12e-05
2218	7.04e-05
2230	4.48e-05
2242	2.56e-05
2254	7.68e-05
2266	4.48e-05
2278	6.4e-05
2290	7.04e-05
2302	7.68e-05
2314	0.0001088
2326	0.0001408
2338	7.68e-05
2350	7.04e-05
2362	0.0001216
2374	8.96e-05
2386	0.0001152
2398	2.56e-05
2410	0.0001088
2422	0.0001152
2434	0.000128
2446	0.0001152
2458	6.4e-05
2470	5.12e-05
2482	4.48e-05
2494	7.04e-05
2506	8.96e-05
2518	7.04e-05
2530	0.0001152
2542	0.0001088
2554	0.000128
2566	0.0001536
2578	0.0001472
2590	0.0001792
2602	0.0001728
2614	0.0002112
2626	0.0002176
2638	0.0003072
2650	0.0003648
2662	0.0004736
2674	0.0004992
2686	0.000576
2698	0.0006656
2710	0.00048
2722	0.000512
2734	0.0005824
2746	0.0007104
2758	0.0007488
2770	0.0007808
2782	0.0009152
2794	0.0010688
2806	0.0013312
2818	0.0018048
2830	0.0025472
2842	0.003776
2854	0.005408
2866	0.00848
2878	0.0119552
2890	0.0132352
2902	0.0145856
2914	0.016864
2926	0.0225024
2938	0.0278464
2950	0.03248
2962	0.0325952
2974	0.0306176
2986	0.0238848
2998	0.0140736
3010	0.00624
3022	0.0031552
3034	0.00192
3046	0.001408
3058	0.0012224
3070	0.001152
3082	0.001024
3094	0.0008704
3106	0.0008192
3118	0.0007872
3130	0.0008064
3142	0.0007616
3154	0.0006208
3166	0.0005952
3178	0.0004864
3190	0.0004608
3202	0.000512
3214	0.000512
3226	0.0004224
3238	0.0004928
3250	0.0006208
3262	0.001152
3274	0.00224
3286	0.004032
3298	0.0082304
3310	0.0132992
3322	0.0195648
3334	0.0159744
3346	0.010752
3358	0.0030784
3370	0.001568
3382	0.0006016
3394	0.0002816
3406	0.0002112
3418	0.0001792
3430	0.0001792
3442	0.00016
3454	0.0001728
3466	0.0002112
3478	0.0001728
3490	0.0001472
3502	0.00016
3514	8.96e-05
3526	9.6e-05
3538	0.0001024
3550	0.0001088
3562	4.48e-05
3574	5.76e-05
3586	0.0001088
3598	8.96e-05
3610	0.0001024
3622	0.0001344
3634	0.00016
3646	9.6e-05
3658	0.0001088
3670	0.0001856
3682	0.0001984
3694	0.0002112
3706	0.0002112
3718	0.0002304
3730	0.0003008
3742	0.0002432
3754	0.0003072
3766	0.0002496
3778	0.000224
3790	0.0002112
3802	0.0002496
3814	0.0002944
3826	0.0002944
3838	0.00032
