Infrared Spectrum: Trichloroethylene
Formula: C 2 H Cl 3
CAS: 79-01-6
State: gas
Origin: Sadtler Research Labs Under US-EPA Contract
1/CM	ABSORBANCE
450	0.210331
462	0.0407039
474	0.0249737
486	0.00697318
498	0.00437851
510	0.00486501
522	0.000486501
534	0.0014595
546	0.00227034
558	0.00162167
570	0.00259467
582	0.00535151
594	0.00356767
606	0.0178384
618	0.100057
630	0.169302
642	0.125679
654	0.013622
666	0.00762185
678	0.00600018
690	0.00129734
702	0.000486501
714	0.00243251
726	0.00583801
738	0.0115139
750	0.01946
762	0.0904892
774	0.231412
786	0.307955
798	0.20433
810	0.0750833
822	0.103138
834	0.827863
846	1.62167
858	0.635532
870	0.0220547
882	0.0188114
894	0.0486501
906	0.106382
918	0.374281
930	1.13647
942	1.20944
954	0.31055
966	0.0361632
978	0.0424878
990	0.0358389
1002	0.0246494
1014	0.0280549
1026	0.0217304
1038	0.00875702
1050	0.00600018
1062	0.00389201
1074	0.00421634
1086	0.00437851
1098	0.00762185
1110	0.0108652
1122	0.00794618
1134	0.00437851
1146	0.00356767
1158	0.00210817
1170	0.00243251
1182	0.00389201
1194	0.00518934
1206	0.0100544
1218	0.0197844
1230	0.0330821
1242	0.0956785
1254	0.13395
1266	0.0849755
1278	0.0215682
1290	0.00567585
1302	0.00600018
1314	0.00778402
1326	0.00518934
1338	0.00291901
1350	0.00275684
1362	0.00324334
1374	0.00454068
1386	0.00535151
1398	0.00518934
1410	0.00518934
1422	0.00600018
1434	0.00437851
1446	0.00405418
1458	0.00486501
1470	0.00324334
1482	0.00356767
1494	0.00259467
1506	0.00291901
1518	0.00648668
1530	0.0110274
1542	0.0525421
1554	0.128274
1566	0.123571
1578	0.0964894
1590	0.0885432
1602	0.0431364
1614	0.00616235
1626	0.0014595
1638	0.00356767
1650	0.0014595
1662	0.00162167
1674	0.00389201
1686	0.00454068
1698	0.00518934
1710	0.00227034
1722	0.00259467
1734	0.00372984
1746	0.00551368
1758	0.00697318
1770	0.00810835
1782	0.00681101
1794	0.00405418
1806	0.00227034
1818	0.00113517
1830	0.001946
1842	0.00291901
1854	0.00421634
1866	0.00535151
1878	0.00340551
1890	0.0014595
1902	0.00113517
1914	0.0014595
1926	0.00129734
1938	0.00113517
1950	0.0014595
1962	0.0014595
1974	0.00129734
1986	0.000810835
1998	0.000648668
2010	0.000648668
2022	0.00113517
2034	0.000810835
2046	0.00129734
2058	0.00113517
2070	0.00129734
2082	0.00227034
2094	0.00243251
2106	0.00162167
2118	0.000162167
2130	0.000162167
2142	0.000810835
2154	0.00129734
2166	0.00113517
2178	0.00129734
2190	0.00162167
2202	0.0014595
2214	0.0014595
2226	0.00129734
2238	0.000648668
2250	0.000648668
2262	0.000324334
2274	0.000162167
2286	0.000486501
2298	0.000648668
2310	0.000486501
2322	0.000324334
2334	0
2346	0.000324334
2358	0
2370	0
2382	0.000324334
2394	0.000810835
2406	0.000648668
2418	0.00129734
2430	0.00162167
2442	0.000810835
2454	0.000810835
2466	0.00210817
2478	0.00243251
2490	0.00259467
2502	0.00178384
2514	0.0014595
2526	0.00129734
2538	0.000648668
2550	0.000324334
2562	0.000648668
2574	0.000648668
2586	0.000324334
2598	0.000486501
2610	0.000486501
2622	0.000324334
2634	0
2646	0
2658	0.000324334
2670	0.000486501
2682	0.000324334
2694	0.000648668
2706	0.000810835
2718	0.000486501
2730	0.000162167
2742	0.000162167
2754	0.000324334
2766	0.000810835
2778	0.00113517
2790	0.00178384
2802	0.00275684
2814	0.00405418
2826	0.00551368
2838	0.00437851
2850	0.00227034
2862	0.00275684
2874	0.00340551
2886	0.00405418
2898	0.00454068
2910	0.00567585
2922	0.00583801
2934	0.00745968
2946	0.00810835
2958	0.00973002
2970	0.0110274
2982	0.0103787
2994	0.00875702
3006	0.00616235
3018	0.00421634
3030	0.00356767
3042	0.00437851
3054	0.00518934
3066	0.0121625
3078	0.0389201
3090	0.13168
3102	0.139301
3114	0.0210817
3126	0.0115139
3138	0.012649
3150	0.0168654
3162	0.0201087
3174	0.0139464
3186	0.00227034
3198	0.00129734
3210	0.00129734
3222	0.00162167
3234	0.00129734
3246	0.00113517
3258	0.00162167
3270	0.00162167
3282	0.000810835
3294	0.00113517
3306	0.00113517
3318	0.00113517
3330	0.00178384
3342	0.00113517
3354	0.000810835
3366	0.00162167
3378	0.00129734
3390	0.00129734
3402	0.00129734
3414	0.00113517
3426	0.00113517
3438	0.0014595
3450	0.00129734
3462	0.00129734
3474	0.000810835
3486	0.000810835
3498	0.000648668
3510	0.00178384
3522	0.000324334
3534	0.00129734
3546	0.000648668
3558	0.00162167
3570	0.0014595
3582	0.000810835
3594	0.000648668
3606	0.0014595
3618	0.000810835
3630	0.00113517
3642	0.0014595
3654	0.00162167
3666	0.00129734
3678	0.00113517
3690	0.00227034
3702	0.00162167
3714	0.00227034
3726	0.00178384
3738	0.00243251
3750	0.000324334
3762	0.000162167
3774	0.00129734
3786	0.00113517
3798	0.001946
3810	0.000648668
3822	0
3834	0.000162167
3846	0.00129734
3858	0.00243251
3870	0.00178384
3882	0.000162167
3894	0.00210817
3906	0.000810835
3918	0.001946
3930	0.00178384
3942	0.00340551
3954	0.00324334
3966	0.00178384
