Infrared Spectrum: ETHENE, 1,1,2-TRICHLORO-
Formula: C2 H Cl3
CAS: 79-01-6
State: LIQUID (NEAT)
Class: COBLENTZ III
Instrument: PERKIN-ELMER 180 (GRATING)
Instrument parameters: GRATING CHANGES AT 2000, 1000, 500, 250 CM^-^1
Sampling: TRANSMISSION
Path length: CAPILLARY, KBr
Resolution: 4
Origin: STANDARD OIL OF OHIO
1/CM	TRANSMITTANCE
297.201	0.078
307.379	0.131
317.557	0.175
327.735	0.233
337.913	0.311
348.092	0.388
358.27	0.461
368.448	0.531
378.626	0.589
388.804	0.639
398.982	0.684
409.16	0.721
419.338	0.754
429.517	0.763
439.695	0.712
449.873	0.15
460.051	0.743
470.229	0.817
480.407	0.848
490.585	0.86
500.763	0.891
510.942	0.899
521.12	0.902
531.298	0.906
541.476	0.894
551.654	0.893
561.832	0.881
572.01	0.888
582.188	0.888
592.366	0.875
602.545	0.838
612.723	0.666
622.901	0.053
633.079	0.565
643.257	0.796
653.435	0.815
663.613	0.808
673.791	0.868
683.97	0.877
694.148	0.878
704.326	0.876
714.504	0.862
724.682	0.839
734.86	0.809
745.038	0.741
755.216	0.544
765.395	0.344
775.573	0.004
785.751	0.06
795.929	0.269
806.107	0.42
816.285	0.445
826.463	0.117
836.641	0.003
846.82	0.019
856.998	0.419
867.176	0.616
877.354	0.683
887.532	0.663
897.71	0.48
907.888	0.222
918.066	0.048
928.244	0.003
938.423	0.064
948.601	0.436
958.779	0.617
968.957	0.691
979.135	0.715
989.313	0.709
999.491	0.742
1009.67	0.704
1019.85	0.771
1030.03	0.849
1040.2	0.851
1050.38	0.849
1060.56	0.868
1070.74	0.867
1080.92	0.868
1091.09	0.866
1101.27	0.844
1111.45	0.835
1121.63	0.859
1131.81	0.859
1141.99	0.854
1152.16	0.867
1162.34	0.868
1172.52	0.866
1182.7	0.857
1192.88	0.847
1203.05	0.821
1213.23	0.752
1223.41	0.68
1233.59	0.597
1243.77	0.3539
1253.94	0.385
1264.12	0.666
1274.3	0.798
1284.48	0.828
1294.66	0.836
1304.83	0.828
1315.01	0.818
1325.19	0.851
1335.37	0.858
1345.55	0.859
1355.73	0.856
1365.9	0.849
1376.08	0.843
1386.26	0.85
1396.44	0.851
1406.62	0.839
1416.79	0.847
1426.97	0.84
1437.15	0.847
1447.33	0.846
1457.51	0.84
1467.68	0.839
1477.86	0.847
1488.04	0.85
1498.22	0.85
1508.4	0.841
1518.58	0.83
1528.75	0.791
1538.93	0.695
1549.11	0.484
1559.29	0.345
1569.47	0.44
1579.64	0.321
1589.82	0.1982
1600	0.752
1610.18	0.808
1620.36	0.825
1630.53	0.834
1640.71	0.84
1650.89	0.845
1661.07	0.844
1671.25	0.84
1681.43	0.837
1691.6	0.848
1701.78	0.851
1711.96	0.848
1722.14	0.847
1732.32	0.827
1742.49	0.82
1752.67	0.831
1762.85	0.825
1773.03	0.832
1783.21	0.839
1793.38	0.827
1803.56	0.837
1813.74	0.847
1823.92	0.848
1834.1	0.842
1844.28	0.838
1854.45	0.805
1864.63	0.82
1874.81	0.839
1884.99	0.844
1895.17	0.845
1905.34	0.848
1915.52	0.844
1925.7	0.847
1935.88	0.848
1946.06	0.844
1956.23	0.844
1966.41	0.84
1976.59	0.845
1986.77	0.845
1996.95	0.844
2007.13	0.852
2017.3	0.85
2027.48	0.847
2037.66	0.8495
2047.84	0.8485
2058.02	0.8459
2068.19	0.8455
2078.37	0.8374
2088.55	0.833
2098.73	0.8446
2108.91	0.848
2119.08	0.85
2129.26	0.85
2139.44	0.8474
2149.62	0.846
2159.8	0.848
2169.98	0.842
2180.15	0.8406
2190.33	0.8406
2200.51	0.844
2210.69	0.8343
2220.87	0.843
2231.04	0.847
2241.22	0.844
2251.4	0.8463
2261.58	0.8436
2271.76	0.848
2281.93	0.844
2292.11	0.8393
2302.29	0.838
2312.47	0.8393
2322.65	0.84
2332.83	0.8425
2343	0.8385
2353.18	0.8402
2363.36	0.838
2373.54	0.8402
2383.72	0.835
2393.89	0.836
2404.07	0.8332
2414.25	0.8274
2424.43	0.8306
2434.61	0.834
2444.78	0.8302
2454.96	0.8253
2465.14	0.8145
2475.32	0.8041
2485.5	0.8147
2495.68	0.814
2505.85	0.8099
2516.03	0.8218
2526.21	0.8278
2536.39	0.83
2546.57	0.831
2556.74	0.831
2566.92	0.8319
2577.1	0.8291
2587.28	0.834
2597.46	0.83
2607.63	0.8291
2617.81	0.829
2627.99	0.829
2638.17	0.829
2648.35	0.829
2658.52	0.83
2668.7	0.83
2678.88	0.828
2689.06	0.826
2699.24	0.828
2709.42	0.827
2719.59	0.828
2729.77	0.826
2739.95	0.829
2750.13	0.826
2760.31	0.8261
2770.48	0.823
2780.66	0.819
2790.84	0.8127
2801.02	0.7966
2811.2	0.7835
2821.37	0.759
2831.55	0.7937
2841.73	0.8063
2851.91	0.8151
2862.09	0.816
2872.27	0.8109
2882.44	0.809
2892.62	0.814
2902.8	0.8088
2912.98	0.8016
2923.16	0.7958
2933.33	0.7962
2943.51	0.801
2953.69	0.7998
2963.87	0.7878
2974.05	0.783
2984.22	0.7882
2994.4	0.7965
3004.58	0.801
3014.76	0.801
3024.94	0.7955
3035.12	0.7852
3045.29	0.7615
3055.47	0.7153
3065.65	0.5731
3075.83	0.1482
3086.01	0.0701
3096.18	0.385
3106.36	0.6033
3116.54	0.655
3126.72	0.685
3136.9	0.683
3147.07	0.6488
3157.25	0.5613
3167.43	0.6743
3177.61	0.7627
3187.79	0.7812
3197.97	0.7908
3208.14	0.7984
3218.32	0.801
3228.5	0.801
3238.68	0.801
3248.86	0.8
3259.03	0.801
3269.21	0.8044
3279.39	0.806
3289.57	0.8055
3299.75	0.808
3309.92	0.8065
3320.1	0.808
3330.28	0.807
3340.46	0.804
3350.64	0.806
3360.82	0.807
3370.99	0.808
3381.17	0.806
3391.35	0.8045
3401.53	0.81
3411.71	0.8064
3421.88	0.8072
3432.06	0.8071
3442.24	0.8034
3452.42	0.8044
3462.6	0.803
3472.77	0.8046
3482.95	0.8066
3493.13	0.808
3503.31	0.809
3513.49	0.809
3523.67	0.8074
3533.84	0.803
3544.02	0.8067
3554.2	0.808
3564.38	0.8097
3574.56	0.807
3584.73	0.8079
3594.91	0.807
3605.09	0.8124
3615.27	0.8103
3625.45	0.8107
3635.62	0.8093
3645.8	0.8103
3655.98	0.81
3666.16	0.81
3676.34	0.8072
3686.52	0.803
3696.69	0.7985
3706.87	0.7853
3717.05	0.7879
3727.23	0.8018
3737.41	0.804
3747.58	0.8056
3757.76	0.8046
3767.94	0.8088
3778.12	0.805
3788.3	0.804
3798.47	0.804
3808.65	0.8033
3818.83	0.8039
3829.01	0.8
3839.19	0.7962
3849.37	0.7761
3859.54	0.7898
3869.72	0.796
3879.9	0.799
3890.08	0.799
3900.26	0.8
3910.43	0.7981
3920.61	0.7882
3930.79	0.7909
3940.97	0.799
3951.15	0.801
3961.32	0.799
3971.5	0.801
3981.68	0.798
3991.86	0.795
