Infrared Spectrum: 1,1,2-TRICHLOROETHYLENE
Formula: C2 H Cl3
CAS: 79-01-6
Class: COBLENTZ
Instrument: Not specified, most likely a prism, grating, or hybrid spectrometer.
Sampling: TRANSMISSION
Path length: 0.0025 CM
Resolution: 4
Origin: W.T. BOLLETER
MICROMETERS	TRANSMITTANCE
14.577	0.755
14.6469	0.738
14.7168	0.719
14.7868	0.695
14.8567	0.657
14.9266	0.597
14.9965	0.538
15.0664	0.492
15.1364	0.447
15.2063	0.426
15.2762	0.425
15.3461	0.432
15.416	0.435
15.486	0.426
15.5559	0.388
15.6258	0.32
15.6957	0.239
15.7656	0.148
15.8356	0.086
15.9055	0.051
15.9754	0.044
16.0453	0.041
16.1152	0.043
16.1851	0.056
16.2551	0.089
16.325	0.165
16.3949	0.28
16.4648	0.38
16.5347	0.45
16.6047	0.492
16.6746	0.519
16.7445	0.538
16.8144	0.564
16.8843	0.6
16.9543	0.636
17.0242	0.664
17.0941	0.683
17.164	0.697
17.2339	0.707
17.3039	0.709
17.3738	0.703
17.4437	0.695
17.5136	0.681
17.5835	0.672
17.6535	0.667
17.7234	0.667
17.7933	0.672
17.8632	0.683
17.9331	0.705
18.0031	0.721
18.073	0.731
18.1429	0.734
18.2128	0.733
18.2827	0.733
18.3527	0.731
18.4226	0.736
18.4925	0.745
18.5624	0.757
18.6323	0.769
18.7022	0.771
18.7722	0.772
18.8421	0.772
18.912	0.771
18.9819	0.769
19.0518	0.771
19.1218	0.772
19.1917	0.774
19.2616	0.776
19.3315	0.779
19.4014	0.777
19.4714	0.774
19.5413	0.772
19.6112	0.771
19.6811	0.769
19.751	0.762
19.821	0.759
19.8909	0.755
19.9608	0.753
20.0307	0.748
20.1006	0.745
20.1706	0.736
20.2405	0.733
20.3104	0.729
20.3803	0.722
20.4502	0.716
20.5202	0.709
20.5901	0.695
20.66	0.683
20.7299	0.674
20.7998	0.659
20.8698	0.645
20.9397	0.628
21.0096	0.612
21.0795	0.597
21.1494	0.581
21.2193	0.564
21.2893	0.552
21.3592	0.531
21.4291	0.504
21.499	0.48
21.5689	0.437
21.6389	0.378
21.7088	0.32
21.7787	0.246
21.8486	0.179
21.9185	0.113
21.9885	0.086
22.0584	0.056
22.1283	0.051
22.1982	0.053
22.2681	0.061
22.3381	0.08
22.408	0.137
22.4779	0.206
22.5478	0.296
22.6177	0.351
22.6877	0.395
22.7576	0.435
22.8275	0.48
22.8974	0.519
22.9673	0.55
23.0373	0.585
23.1072	0.612
23.1771	0.633
23.247	0.647
23.3169	0.659
23.3869	0.66
23.4568	0.674
23.5267	0.683
23.5966	0.688
23.6665	0.695
23.7364	0.703
23.8064	0.709
23.8763	0.712
23.9462	0.719
24.0161	0.724
24.086	0.728
24.156	0.734
24.2259	0.743
24.2958	0.745
24.3657	0.748
24.4356	0.753
24.5056	0.757
24.5755	0.76
24.6454	0.767
24.7153	0.771
24.7852	0.772
24.8552	0.795
24.9251	0.808
24.995	0.812
25.0649	0.814
25.1348	0.817
25.2048	0.817
25.2747	0.812
25.3446	0.81
25.4145	0.81
25.4844	0.812
25.5544	0.81
25.6243	0.808
25.6942	0.808
25.7641	0.807
25.834	0.807
25.904	0.807
25.9739	0.802
26.0438	0.795
26.1137	0.795
26.1836	0.795
26.2536	0.795
26.3235	0.796
26.3934	0.798
26.4633	0.805
26.5332	0.808
26.6031	0.812
26.6731	0.817
26.743	0.824
26.8129	0.836
26.8828	0.839
26.9527	0.845
27.0227	0.853
27.0926	0.855
27.1625	0.857
27.2324	0.858
27.3023	0.862
27.3723	0.865
27.4422	0.869
27.5121	0.872
27.582	0.874
27.6519	0.879
27.7219	0.881
27.7918	0.881
27.8617	0.882
27.9316	0.884
28.0015	0.888
28.0715	0.888
28.1414	0.891
28.2113	0.893
28.2812	0.893
28.3511	0.891
28.4211	0.893
28.491	0.893
28.5609	0.895
28.6308	0.895
28.7007	0.893
28.7707	0.889
28.8406	0.888
28.9105	0.888
28.9804	0.891
29.0503	0.893
29.1202	0.891
29.1902	0.889
29.2601	0.891
29.33	0.891
29.3999	0.891
29.4698	0.893
29.5398	0.896
29.6097	0.893
29.6796	0.893
29.7495	0.893
29.8194	0.891
29.8894	0.891
29.9593	0.888
30.0292	0.884
30.0991	0.882
30.169	0.879
30.239	0.879
30.3089	0.877
30.3788	0.876
30.4487	0.874
30.5186	0.87
30.5886	0.867
30.6585	0.864
30.7284	0.864
30.7983	0.864
30.8682	0.86
30.9382	0.858
31.0081	0.855
31.078	0.845
31.1479	0.839
31.2178	0.836
31.2878	0.836
31.3577	0.833
31.4276	0.831
31.4975	0.827
31.5674	0.827
31.6373	0.819
31.7073	0.81
31.7772	0.807
31.8471	0.808
31.917	0.805
31.9869	0.803
32.0569	0.798
32.1268	0.795
32.1967	0.793
32.2666	0.79
32.3365	0.788
32.4065	0.784
32.4764	0.784
32.5463	0.776
32.6162	0.774
32.6861	0.774
32.7561	0.774
32.826	0.774
32.8959	0.774
32.9658	0.772
33.0357	0.765
33.1057	0.76
33.1756	0.755
33.2455	0.75
33.3154	0.746
33.3853	0.753
33.4553	0.755
33.5252	0.752
33.5951	0.752
33.665	0.748
33.7349	0.75
33.8049	0.746
33.8748	0.745
33.9447	0.745
34.0146	0.75
34.0845	0.748
34.1544	0.745
34.2244	0.741
34.2943	0.738
34.3642	0.736
34.4341	0.733
34.504	0.731
34.574	0.724
34.6439	0.716
34.7138	0.709
34.7837	0.7
34.8536	0.683
34.9236	0.667
34.9935	0.662
35.0634	0.652
35.1333	0.645
35.2032	0.636
35.2732	0.628
35.3431	0.616
35.413	0.605
35.4829	0.597
35.5528	0.588
35.6228	0.576
35.6927	0.562
35.7626	0.545
35.8325	0.524
35.9024	0.506
35.9724	0.488
36.0423	0.475
36.1122	0.464
36.1821	0.44
36.252	0.426
36.322	0.418
36.3919	0.407
36.4618	0.404
36.5317	0.399
36.6016	0.395
36.6716	0.392
36.7415	0.392
36.8114	0.394
36.8813	0.395
36.9512	0.395
37.0211	0.399
37.0911	0.402
37.161	0.404
37.2309	0.407
37.3008	0.411
37.3707	0.413
37.4407	0.414
37.5106	0.418
37.5805	0.419
37.6504	0.421
37.7203	0.421
37.7903	0.419
37.8602	0.418
37.9301	0.418
38	0.414
