Infrared Spectrum: Ethylene, trichloro-
Formula: C2 H Cl3
CAS: 79-01-6
State: GAS (50 mmHg, N2 ADDED, TOTAL PRESSURE 600 mmHg)
Class: COBLENTZ
Instrument: DOW KBr FOREPRISM-GRATING
Instrument parameters: GRATING CHANGED AT 5.0, 7.5, 15.0 MICRON
Sampling: TRANSMISSION
Path length: 5 CM
Resolution: 2
Origin: DOW CHEMICAL COMPANY
1/CM	TRANSMITTANCE
464	0.8133
473	0.8294
482	0.8576
491	0.862
500	0.8593
509	0.8576
518	0.8567
527	0.8563
536	0.8565
545	0.8576
554	0.8574
563	0.8624
572	0.8621
581	0.8599
590	0.863
599	0.8684
608	0.8646
617	0.8163
626	0.6793
635	0.4931
644	0.4753
653	0.822
662	0.8656
671	0.8675
680	0.8699
689	0.8761
698	0.881
707	0.8834
716	0.8827
725	0.8806
734	0.8778
743	0.8746
752	0.8697
761	0.8353
770	0.6411
779	0.3956
788	0.0569
797	0.4422
806	0.6848
815	0.7964
824	0.8166
833	0.5334
842	0.0234
851	0.0132
860	0.4351
869	0.8565
878	0.8688
887	0.8697
896	0.8311
905	0.7461
914	0.6854
923	0.3811
932	0.0377
941	0.0338
950	0.1393
959	0.6392
968	0.8564
977	0.8311
986	0.8227
995	0.8524
1004	0.8622
1013	0.8412
1022	0.8542
1031	0.8763
1040	0.8896
1049	0.8949
1058	0.8966
1067	0.8956
1076	0.8937
1085	0.8967
1094	0.8953
1103	0.8855
1112	0.883
1121	0.8882
1130	0.8957
1139	0.8944
1148	0.8953
1157	0.8996
1166	0.902
1175	0.8987
1184	0.8971
1193	0.9022
1202	0.895
1211	0.8836
1220	0.8658
1229	0.8453
1238	0.7975
1247	0.6726
1256	0.6036
1265	0.6237
1274	0.8002
1283	0.8673
1292	0.8816
1301	0.8792
1310	0.8732
1319	0.8705
1328	0.8748
1337	0.88
1346	0.8808
1355	0.8871
1364	0.8989
1373	0.8899
1382	0.8775
1391	0.8716
1400	0.8701
1409	0.8691
1418	0.8695
1427	0.8711
1436	0.8716
1445	0.8719
1454	0.8695
1463	0.8696
1472	0.8707
1481	0.867
1490	0.8667
1499	0.8656
1508	0.8654
1517	0.8652
1526	0.8589
1535	0.8609
1544	0.816
1553	0.749
1562	0.6072
1571	0.5982
1580	0.7319
1589	0.6255
1598	0.6444
1607	0.8155
1616	0.8621
1625	0.8722
1634	0.8688
1643	0.8706
1652	0.8738
1661	0.8671
1670	0.8682
1679	0.866
1688	0.8622
1697	0.8692
1706	0.8648
1715	0.8791
1724	0.8682
1733	0.8627
1742	0.8669
1751	0.8638
1760	0.8597
1769	0.8577
1778	0.8564
1787	0.8551
1796	0.8578
1805	0.8658
1814	0.867
1823	0.8658
1832	0.8648
1841	0.8636
1850	0.8638
1859	0.8607
1868	0.8567
1877	0.8565
1886	0.8606
1895	0.8639
1904	0.8664
1913	0.8679
1922	0.8686
1931	0.8688
1940	0.8687
1949	0.8687
1958	0.8686
1967	0.8685
1976	0.8685
1985	0.8684
1994	0.8685
2003	0.8687
2012	0.8688
2021	0.8689
2030	0.8689
2039	0.8686
2048	0.8684
2057	0.8681
2066	0.8678
2075	0.8671
2084	0.866
2093	0.8649
2102	0.8638
2111	0.8641
2120	0.8668
2129	0.8687
2138	0.8711
2147	0.8873
2156	0.8705
2165	0.8689
2174	0.8686
2183	0.869
2192	0.8693
2201	0.8694
2210	0.8696
2219	0.8695
2228	0.8695
2237	0.8692
2246	0.869
2255	0.8687
2264	0.8689
2273	0.8691
2282	0.8693
2291	0.8695
2300	0.8697
2309	0.8699
2318	0.8705
2327	0.8714
2336	0.8723
2345	0.8734
2354	0.8749
2363	0.8751
2372	0.8749
2381	0.8746
2390	0.8743
2399	0.874
2408	0.874
2417	0.8739
2426	0.8743
2435	0.8753
2444	0.8763
2453	0.8761
2462	0.8758
2471	0.8731
2480	0.871
2489	0.871
2498	0.871
2507	0.8709
2516	0.8709
2525	0.8709
2534	0.8711
2543	0.8714
2552	0.8722
2561	0.8733
2570	0.8744
2579	0.8763
2588	0.8767
2597	0.8767
2606	0.8766
2615	0.8764
2624	0.8765
2633	0.8768
2642	0.877
2651	0.8765
2660	0.8761
2669	0.876
2678	0.8765
2687	0.8777
2696	0.8784
2705	0.8772
2714	0.8758
2723	0.8744
2732	0.8741
2741	0.8745
2750	0.8747
2759	0.8745
2768	0.8742
2777	0.8737
2786	0.8732
2795	0.8723
2804	0.8713
2813	0.8704
2822	0.8697
2831	0.8692
2840	0.8701
2849	0.8788
2858	0.8856
2867	0.8823
2876	0.8792
2885	0.878
2894	0.8798
2903	0.8844
2912	0.8924
2921	0.8983
2930	0.8922
2939	0.8854
2948	0.8799
2957	0.8769
2966	0.8756
2975	0.8742
2984	0.8729
2993	0.8715
3002	0.8704
3011	0.8699
3020	0.8694
3029	0.8695
3038	0.8699
3047	0.8702
3056	0.8679
3065	0.8637
3074	0.8538
3083	0.8263
3092	0.7408
3101	0.5483
3110	0.5228
3119	0.7584
3128	0.8573
3137	0.8567
3146	0.855
3155	0.8529
3164	0.8435
3173	0.8221
3182	0.8412
3191	0.8638
3200	0.8757
3209	0.8761
3218	0.8756
3227	0.8764
3236	0.8775
3245	0.8772
3254	0.8748
3263	0.8735
3272	0.8741
3281	0.8778
3290	0.8782
3299	0.8757
3308	0.8779
3317	0.8794
3326	0.8793
3335	0.8782
3344	0.877
3353	0.8768
3362	0.878
3371	0.8797
3380	0.8812
3389	0.882
3398	0.8811
3407	0.8794
3416	0.8786
3425	0.8781
3434	0.878
3443	0.8784
3452	0.8791
3461	0.8807
3470	0.882
3479	0.881
3488	0.8789
3497	0.8781
3506	0.8779
3515	0.8777
3524	0.878
3533	0.8782
3542	0.8784
3551	0.8784
3560	0.8783
3569	0.8783
3578	0.8782
3587	0.878
3596	0.8778
3605	0.8775
3614	0.8769
3623	0.8759
3632	0.875
3641	0.874
3650	0.8755
3659	0.8782
3668	0.8771
3677	0.8735
3686	0.8714
3695	0.8718
3704	0.8721
3713	0.8703
3722	0.8657
3731	0.8706
3740	0.8739
3749	0.8763
3758	0.8778
3767	0.878
3776	0.8769
3785	0.8738
3794	0.8714
