Infrared Spectrum: Propanoic acid, 2-chloro-
Formula: C 3 H 5 Cl O 2
CAS: 598-78-7
State: gas
Origin: Sadtler Research Labs Under US-EPA Contract
1/CM	ABSORBANCE
450	0.0113215
462	0.0036918
474	0.00845012
486	0.0131264
498	0.0218226
510	0.0113215
522	0.0365898
534	0.0791686
546	0.110098
558	0.145047
570	0.154809
582	0.153415
594	0.146852
606	0.145785
618	0.105257
630	0.0654679
642	0.0781021
654	0.105339
666	0.106488
678	0.09853
690	0.0895056
702	0.0703083
714	0.04102
726	0.030765
738	0.0211663
750	0.0222328
762	0.0191974
774	0.0186231
786	0.0174745
798	0.0173104
810	0.0152594
822	0.0195255
834	0.0193614
846	0.0086142
858	0.0045122
870	0.00229712
882	0.00278936
894	0.004102
906	0.00754768
918	0.00762972
930	0.00787584
942	0.00845012
954	0.0126342
966	0.0284679
978	0.0600533
990	0.0756409
1002	0.0642373
1014	0.04504
1026	0.0494701
1038	0.080071
1050	0.129295
1062	0.18057
1074	0.2421
1086	0.264333
1098	0.226759
1110	0.218719
1122	0.269337
1134	0.345224
1146	0.369016
1158	0.314787
1170	0.252191
1182	0.179175
1194	0.112477
1206	0.0804812
1218	0.0762972
1230	0.0954125
1242	0.113297
1254	0.094428
1266	0.0750666
1278	0.0639092
1290	0.0592329
1302	0.0644834
1314	0.0803172
1326	0.0997606
1338	0.123716
1350	0.129459
1362	0.120517
1374	0.126013
1386	0.129131
1398	0.086142
1410	0.0375743
1422	0.0268271
1434	0.0351131
1446	0.0596431
1458	0.0736719
1470	0.0427428
1482	0.0165721
1494	0.0086142
1506	0.00771176
1518	0.00549668
1530	0.00467628
1542	0.00295344
1554	0.0028714
1566	0.00393792
1578	0.00525056
1590	0.00467628
1602	0.00525056
1614	0.00566076
1626	0.00598892
1638	0.00582484
1650	0.006153
1662	0.00680932
1674	0.0053326
1686	0.00680932
1698	0.00828604
1710	0.0126342
1722	0.026663
1734	0.0601353
1746	0.119696
1758	0.244315
1770	0.516688
1782	0.765269
1794	0.742134
1806	0.442032
1818	0.198455
1830	0.079989
1842	0.0350311
1854	0.0182129
1866	0.0100089
1878	0.00721952
1890	0.00500444
1902	0.00393792
1914	0.0036918
1926	0.00303548
1938	0.00344568
1950	0.00459424
1962	0.0049224
1974	0.00418404
1986	0.00344568
1998	0.00229712
2010	0.00147672
2022	0.00172284
2034	0.0016408
2046	0.00106652
2058	0.00172284
2070	0.0016408
2082	0.00114856
2094	0.00106652
2106	0.00106652
2118	0.00024612
2130	0.00049224
2142	0.00032816
2154	0.00016408
2166	0.00057428
2178	0.00188692
2190	0.0024612
2202	0.00295344
2214	0.00311752
2226	0.00237916
2238	0.00188692
2250	0.00180488
2262	0.00114856
2274	0.00098448
2286	0.00196896
2298	0.00418404
2310	0.00541464
2322	0.00566076
2334	0.00418404
2346	0.00607096
2358	0.00196896
2370	0.0012306
2382	0.00377384
2394	0.00114856
2406	0.00188692
2418	0.00237916
2430	0.00278936
2442	0.00352772
2454	0.00295344
2466	0.00262528
2478	0.00262528
2490	0.00196896
2502	0.00147672
2514	0.00188692
2526	0.002051
2538	0.00237916
2550	0.00254324
2562	0.00270732
2574	0.00188692
2586	0.00155876
2598	0.00106652
2610	0.00049224
2622	0.0012306
2634	0.00147672
2646	0.00155876
2658	0.00090244
2670	0.00155876
2682	0.00155876
2694	0.00147672
2706	0.00147672
2718	0.00024612
2730	0.00049224
2742	0.00114856
2754	0.00106652
2766	0.00147672
2778	0.00262528
2790	0.00254324
2802	0.00344568
2814	0.00344568
2826	0.0036918
2838	0.00426608
2850	0.00508648
2862	0.00721952
2874	0.0124701
2886	0.0197716
2898	0.0200998
2910	0.0168182
2922	0.0195255
2934	0.0320776
2946	0.0427428
2958	0.0377384
2970	0.0261708
2982	0.0370821
2994	0.0644834
3006	0.0724413
3018	0.0457783
3030	0.0210843
3042	0.0114036
3054	0.00746564
3066	0.00648116
3078	0.00607096
3090	0.00434812
3102	0.00393792
3114	0.00475832
3126	0.00484036
3138	0.00467628
3150	0.00549668
3162	0.0057428
3174	0.00484036
3186	0.00475832
3198	0.00344568
3210	0.00303548
3222	0.00336364
3234	0.00516852
3246	0.00500444
3258	0.00549668
3270	0.00557872
3282	0.00426608
3294	0.00426608
3306	0.00467628
3318	0.00311752
3330	0.00106652
3342	0.00090244
3354	0.0016408
3366	0.00229712
3378	0.00418404
3390	0.00360976
3402	0.00270732
3414	0.00319956
3426	0.00106652
3438	0.00131264
3450	0.00090244
3462	0.00221508
3474	0.00213304
3486	0.00401996
3498	0.00639912
3510	0.0150133
3522	0.0292883
3534	0.0351952
3546	0.0306009
3558	0.0549668
3570	0.231435
3582	0.318233
3594	0.181965
3606	0.0252683
3618	0.00795788
3630	0.00401996
3642	0.0049224
3654	0.002051
3666	0.00385588
3678	0.00303548
3690	0.00049224
3702	0.00221508
3714	0.00155876
3726	0.0024612
3738	0.00196896
3750	0.00229712
3762	0.00557872
3774	0.00516852
3786	0.00393792
3798	0.00401996
3810	0.00172284
3822	0
3834	0.00426608
3846	0.00500444
3858	0.00713748
3870	0.010173
3882	0.00754768
3894	0.00639912
3906	0.00541464
3918	0.00549668
3930	0.0032816
3942	0.00484036
3954	0.00147672
3966	0.00344568
