Infrared Spectrum: Thiolactic acid
Formula: C 3 H 6 O 2 S
CAS: 79-42-5
State: gas
Origin: EPA-IR VAPOR PHASE LIBRARY
1/CM	ABSORBANCE
549.8	0.015417
559.445	0.017057
569.09	0.018727
578.734	0.019077
588.379	0.017947
598.024	0.016107
607.669	0.013547
617.313	0.010807
626.958	0.009267
636.603	0.008947
646.248	0.009717
655.893	0.010357
665.537	0.010337
675.182	0.008997
684.827	0.006877
694.472	0.004517
704.116	0.002807
713.761	0.002057
723.406	0.001907
733.051	0.001997
742.695	0.002177
752.34	0.002887
761.985	0.003577
771.63	0.003877
781.275	0.003707
790.919	0.002947
800.564	0.002487
810.209	0.002387
819.854	0.002257
829.498	0.002067
839.143	0.001707
848.788	0.0010733
858.433	0.0008177
868.078	0.0010065
877.722	0.0010788
887.367	0.0011598
897.012	0.0011626
906.657	0.0008682
916.301	0.0007469
925.946	0.0007812
935.591	0.0008794
945.236	0.0010719
954.88	0.001407
964.525	0.001977
974.17	0.003017
983.815	0.003857
993.46	0.004397
1003.1	0.004537
1012.75	0.004617
1022.39	0.005477
1032.04	0.008437
1041.68	0.012767
1051.33	0.017337
1060.97	0.021417
1070.62	0.025897
1080.26	0.029107
1089.91	0.030337
1099.55	0.030117
1109.2	0.032207
1118.84	0.039187
1128.49	0.046257
1138.13	0.047137
1147.78	0.041027
1157.42	0.031247
1167.07	0.024657
1176.71	0.018597
1186.36	0.013397
1196	0.009617
1205.64	0.007517
1215.29	0.006937
1224.93	0.006427
1234.58	0.005937
1244.22	0.005557
1253.87	0.005247
1263.51	0.005067
1273.16	0.005147
1282.8	0.005737
1292.45	0.006957
1302.09	0.008367
1311.74	0.009707
1321.38	0.010617
1331.03	0.010687
1340.67	0.010547
1350.32	0.010607
1359.96	0.011217
1369.61	0.011907
1379.25	0.011537
1388.9	0.009577
1398.54	0.006717
1408.18	0.003737
1417.83	0.002807
1427.47	0.002997
1437.12	0.004277
1446.76	0.005957
1456.41	0.007087
1466.05	0.005267
1475.7	0.003667
1485.34	0.001827
1494.99	0.0011286
1504.63	0.0009442
1514.28	0.0008533
1523.92	0.0008551
1533.57	0.0008647
1543.21	0.0007981
1552.86	0.0007188
1562.5	0.0006487
1572.15	0.0005666
1581.79	0.0005874
1591.44	0.0005702
1601.08	0.0006026
1610.73	0.0006553
1620.37	0.000674
1630.01	0.000778
1639.66	0.0008325
1649.3	0.0009333
1658.95	0.0009904
1668.59	0.0010561
1678.24	0.0011133
1687.88	0.001257
1697.53	0.001607
1707.17	0.002447
1716.82	0.004357
1726.46	0.007587
1736.11	0.013157
1745.75	0.023697
1755.4	0.045547
1765.04	0.072307
1774.69	0.093827
1784.33	0.084457
1793.98	0.057607
1803.62	0.027737
1813.27	0.013457
1822.91	0.007357
1832.55	0.004267
1842.2	0.002607
1851.84	0.001767
1861.49	0.001277
1871.13	0.0010511
1880.78	0.0008094
1890.42	0.0007847
1900.07	0.0008149
1909.71	0.000731
1919.36	0.0006489
1929	0.0006267
1938.65	0.0006356
1948.29	0.0006175
1957.94	0.0005854
1967.58	0.0006288
1977.23	0.0005692
1986.87	0.0005167
1996.52	0.0004166
2006.16	0.0004343
2015.81	0.0004015
2025.45	0.0003447
2035.1	0.0004241
2044.74	0.0003222
2054.38	0.0003364
2064.03	0.0002958
2073.67	0.00022801
2083.32	0.0002785
2092.96	0.0002888
2102.61	0.00026164
2112.25	0.00025755
2121.9	0.0002927
2131.54	0.0003377
2141.19	0.0003265
2150.83	0.0003656
2160.48	0.0003637
2170.12	0.0003339
2179.77	0.0003899
2189.41	0.0005617
2199.06	0.0005005
2208.7	0.0004617
2218.35	0.0004598
2227.99	0.0004632
2237.64	0.0004176
2247.28	0.0003137
2256.92	0.0003305
2266.57	0.0003868
2276.21	0.0003466
2285.86	0.0003289
2295.5	0.0003829
2305.15	0.0004021
2314.79	0.0003877
2324.44	0.0003803
2334.08	0.0004675
2343.73	0.0004065
2353.37	0.0004502
2363.02	0.0005516
2372.66	0.0003993
2382.31	0.0003917
2391.95	0.0003839
2401.6	0.0003554
2411.24	0.0004193
2420.89	0.0003938
2430.53	0.0003509
2440.18	0.0004328
2449.82	0.0004083
2459.47	0.0004458
2469.11	0.0003681
2478.75	0.000355
2488.4	0.000327
2498.04	0.0003563
2507.69	0.000331
2517.33	0.000341
2526.98	0.0002972
2536.62	0.00025518
2546.27	0.00026087
2555.91	0.0002821
2565.56	0.00020843
2575.2	0.0004081
2584.85	0.0006223
2594.49	0.0007007
2604.14	0.0005098
2613.78	0.0003957
2623.43	0.0003539
2633.07	0.0002846
2642.72	0.0001592
2652.36	0.0001272
2662.01	0.000163
2671.65	0.0002838
2681.29	0.0001526
2690.94	0.0001494
2700.58	0.0001179
2710.23	0.0001564
2719.87	0.0001031
2729.52	0.00017009
2739.16	0.0002031
2748.81	0.0003172
2758.45	0.0002968
2768.1	0.000181052
2777.74	0.00020353
2787.39	0.00023021
2797.03	0.00027648
2806.68	0.0002954
2816.32	0.0003785
2825.97	0.0004454
2835.61	0.0004388
2845.26	0.0004582
2854.9	0.0006769
2864.55	0.0010099
2874.19	0.001737
2883.84	0.002427
2893.48	0.002427
2903.12	0.002267
2912.77	0.002167
2922.41	0.002807
2932.06	0.004407
2941.7	0.005227
2951.35	0.005247
2960.99	0.004367
2970.64	0.005007
2980.28	0.007457
2989.93	0.008847
2999.57	0.008547
3009.22	0.004517
3018.86	0.002117
3028.51	0.0009455
3038.15	0.0006623
3047.8	0.0004263
3057.44	0.0004074
3067.09	0.0003466
3076.73	0.0004081
3086.38	0.0003077
3096.02	0.0003109
3105.67	0.0003017
3115.31	0.00024717
3124.95	0.00020029
3134.6	0.0003194
3144.24	0.00018799
3153.89	0.0002996
3163.53	0.0003224
3173.18	0.000324
3182.82	0.0002785
3192.47	0.00023167
3202.11	0.000185633
3211.76	0.00022555
3221.4	0.00027353
3231.05	0.0003844
3240.69	0.00023644
3250.34	0.0003245
3259.98	0.00020469
3269.63	0.00020289
3279.27	0.0003328
3288.92	0.0003712
3298.56	0.0002988
3308.21	0.00024482
3317.85	0.00021104
3327.49	0.00019536
3337.14	8.88e-05
3346.78	5.1e-05
3356.43	0.00018825
3366.07	0.00021143
3375.72	0.0001552
3385.36	0.0003365
3395.01	0.00026631
3404.65	0.0004454
3414.3	0.0004309
3423.94	0.000702
3433.59	0.0008848
3443.23	0.0010401
3452.88	0.001287
3462.52	0.001337
3472.17	0.001307
3481.81	0.001257
3491.46	0.0010345
3501.1	0.0008634
3510.75	0.0011714
3520.39	0.001407
3530.04	0.001767
3539.68	0.002137
3549.32	0.003887
3558.97	0.013287
3568.61	0.027137
3578.26	0.033517
3587.9	0.025927
3597.55	0.009067
3607.19	0.002187
3616.84	0.0011547
3626.48	0.0007644
3636.13	0.0004978
3645.77	0.0005616
3655.42	0.0004141
3665.06	0.0003513
3674.71	0.000304
3684.35	0.0003172
3694	0.000339
3703.64	0.000184337
3713.29	0.00019266
3722.93	0.00017521
3732.58	0.0002999
3742.22	0.00023309
3751.86	0.0002907
3761.51	0.00021862
3771.15	0.0002956
3780.8	0.0001582
3790.44	0.00021665
3800.09	0.0003304
3809.73	0.0002642
3819.38	0.0003265
3829.02	0.0001213
3838.67	0.0003653
3848.31	0.0003722
3857.96	0.00024627
3867.6	0.0003251
3877.25	0.0001494
3886.89	0.00020739
3896.54	0.0003412
3906.18	0.000185554
3915.83	0.00025425
3925.47	0.0001643
3935.12	9.11e-05
3944.76	0.0003246
3954.41	0.0003734
3964.05	0.0003299
3973.69	0.0001232
3983.34	0.00025201
3992.98	0.0003046
