Infrared Spectrum: N-Methyl-1,3-propanediamine
Formula: C 4 H 12 N 2
CAS: 6291-84-5
State: gas
Origin: EPA-IR VAPOR PHASE LIBRARY
1/CM	ABSORBANCE
549.8	0.003097
559.445	0.002837
569.09	0.003057
578.734	0.003597
588.379	0.003787
598.024	0.004187
607.669	0.004677
617.313	0.005347
626.958	0.006157
636.603	0.006907
646.248	0.007767
655.893	0.009057
665.537	0.010307
675.182	0.011527
684.827	0.012707
694.472	0.014427
704.116	0.015747
713.761	0.016967
723.406	0.017927
733.051	0.018867
742.695	0.020187
752.34	0.020667
761.985	0.020977
771.63	0.020677
781.275	0.019167
790.919	0.016917
800.564	0.013557
810.209	0.011067
819.854	0.009057
829.498	0.007637
839.143	0.006987
848.788	0.006187
858.433	0.005687
868.078	0.005377
877.722	0.004947
887.367	0.004547
897.012	0.004387
906.657	0.003987
916.301	0.003997
925.946	0.003617
935.591	0.003567
945.236	0.003107
954.88	0.003177
964.525	0.003377
974.17	0.003117
983.815	0.003207
993.46	0.003347
1003.1	0.003797
1012.75	0.004237
1022.39	0.004787
1032.04	0.005097
1041.68	0.005077
1051.33	0.005797
1060.97	0.007237
1070.62	0.008427
1080.26	0.007977
1089.91	0.007827
1099.55	0.008137
1109.2	0.010327
1118.84	0.012957
1128.49	0.014437
1138.13	0.014647
1147.78	0.013187
1157.42	0.010787
1167.07	0.007647
1176.71	0.005467
1186.36	0.004277
1196	0.003387
1205.64	0.003387
1215.29	0.002817
1224.93	0.002897
1234.58	0.002787
1244.22	0.002907
1253.87	0.002927
1263.51	0.002747
1273.16	0.002757
1282.8	0.002567
1292.45	0.002547
1302.09	0.002677
1311.74	0.002757
1321.38	0.002937
1331.03	0.003537
1340.67	0.004617
1350.32	0.005947
1359.96	0.006807
1369.61	0.006717
1379.25	0.006107
1388.9	0.005237
1398.54	0.004447
1408.18	0.003997
1417.83	0.004287
1427.47	0.005437
1437.12	0.007387
1446.76	0.009267
1456.41	0.010407
1466.05	0.011237
1475.7	0.010327
1485.34	0.008047
1494.99	0.004977
1504.63	0.003227
1514.28	0.002547
1523.92	0.002147
1533.57	0.002007
1543.21	0.001907
1552.86	0.001917
1562.5	0.002067
1572.15	0.002207
1581.79	0.002507
1591.44	0.003087
1601.08	0.003957
1610.73	0.005057
1620.37	0.005997
1630.01	0.005667
1639.66	0.004337
1649.3	0.003157
1658.95	0.002257
1668.59	0.001677
1678.24	0.001377
1687.88	0.001187
1697.53	0.0011259
1707.17	0.0010773
1716.82	0.0009893
1726.46	0.0009644
1736.11	0.0009476
1745.75	0.0008567
1755.4	0.000848
1765.04	0.0007639
1774.69	0.0008597
1784.33	0.0008773
1793.98	0.0008638
1803.62	0.000883
1813.27	0.000966
1822.91	0.0009851
1832.55	0.0009292
1842.2	0.0009467
1851.84	0.0008895
1861.49	0.0008536
1871.13	0.000824
1880.78	0.0006381
1890.42	0.0006145
1900.07	0.0005393
1909.71	0.0005149
1919.36	0.0004958
1929	0.0004736
1938.65	0.0004287
1948.29	0.000452
1957.94	0.0004379
1967.58	0.0003567
1977.23	0.0004042
1986.87	0.0003334
1996.52	0.0004862
2006.16	0.0004846
2015.81	0.0004646
2025.45	0.0004594
2035.1	0.0004221
2044.74	0.0004228
2054.38	0.0004529
2064.03	0.0004701
2073.67	0.0004555
2083.32	0.0004487
2092.96	0.0004226
2102.61	0.0004066
2112.25	0.0004262
2121.9	0.0003871
2131.54	0.0003251
2141.19	0.0003626
2150.83	0.0003724
2160.48	0.0003516
2170.12	0.0004063
2179.77	0.0003761
2189.41	0.0003341
2199.06	0.000398
2208.7	0.000355
2218.35	0.0003265
2227.99	0.0003652
2237.64	0.00023921
2247.28	0.000288
2256.92	0.0003427
2266.57	0.0003267
2276.21	0.00025092
2285.86	0.0002949
2295.5	0.00022253
2305.15	0.0003294
2314.79	0.0003603
2324.44	0.0003334
2334.08	0.00027112
2343.73	0.0003279
2353.37	0.0002704
2363.02	0.0003103
2372.66	0.000375
2382.31	0.000343
2391.95	0.00027623
2401.6	0.0003327
2411.24	0.0003786
2420.89	0.0003637
2430.53	0.000338
2440.18	0.0003597
2449.82	0.0004821
2459.47	0.0004988
2469.11	0.0005017
2478.75	0.0004764
2488.4	0.0004711
2498.04	0.0006365
2507.69	0.0005345
2517.33	0.0005849
2526.98	0.0006284
2536.62	0.0006625
2546.27	0.0007547
2555.91	0.0007308
2565.56	0.0007829
2575.2	0.0008292
2584.85	0.0009711
2594.49	0.0009086
2604.14	0.001237
2613.78	0.001207
2623.43	0.001407
2633.07	0.001547
2642.72	0.001747
2652.36	0.001847
2662.01	0.002167
2671.65	0.002727
2681.29	0.003037
2690.94	0.003587
2700.58	0.003917
2710.23	0.004177
2719.87	0.004427
2729.52	0.004667
2739.16	0.005297
2748.81	0.006327
2758.45	0.007907
2768.1	0.010567
2777.74	0.015497
2787.39	0.021957
2797.03	0.027077
2806.68	0.028667
2816.32	0.026857
2825.97	0.025587
2835.61	0.026497
2845.26	0.029277
2854.9	0.031867
2864.55	0.032527
2874.19	0.030957
2883.84	0.030137
2893.48	0.031197
2903.12	0.033977
2912.77	0.039207
2922.41	0.044357
2932.06	0.048007
2941.7	0.046977
2951.35	0.041307
2960.99	0.032377
2970.64	0.024527
2980.28	0.017117
2989.93	0.010977
2999.57	0.006417
3009.22	0.004257
3018.86	0.003407
3028.51	0.002607
3038.15	0.002347
3047.8	0.002027
3057.44	0.001827
3067.09	0.001757
3076.73	0.001457
3086.38	0.001287
3096.02	0.0011067
3105.67	0.001009
3115.31	0.0010231
3124.95	0.000844
3134.6	0.0007197
3144.24	0.0007573
3153.89	0.0006709
3163.53	0.0006765
3173.18	0.0005971
3182.82	0.0006133
3192.47	0.0005477
3202.11	0.000921
3211.76	0.0006849
3221.4	0.0004925
3231.05	0.0003674
3240.69	0.00043
3250.34	0.0004659
3259.98	0.0003795
3269.63	0.0004655
3279.27	0.0005393
3288.92	0.0004717
3298.56	0.0003403
3308.21	0.0006692
3317.85	0.0007223
3327.49	0.0008576
3337.14	0.0011116
3346.78	0.001297
3356.43	0.001247
3366.07	0.001217
3375.72	0.0007854
3385.36	0.0007038
3395.01	0.0007834
3404.65	0.0007501
3414.3	0.0008672
3423.94	0.0006101
3433.59	0.0006076
3443.23	0.0004259
3452.88	0.0001513
3462.52	0.0003662
3472.17	0.0002311
3481.81	0.0003482
3491.46	0.0004122
3501.1	0.0001623
3510.75	0.0003559
3520.39	0.0003233
3530.04	0.0004649
3539.68	0.00026231
3549.32	0.00019651
3558.97	0.0004866
3568.61	0.0004461
3578.26	0.00023873
3587.9	0.0003451
3597.55	0.0003869
3607.19	0.00023072
3616.84	0.0001065
3626.48	0.000345
3636.13	0.0003658
3645.77	0.0002828
3655.42	0.0001161
3665.06	0.000365
3674.71	0.0004234
3684.35	0.0003524
3694	0.0001098
3703.64	4.9e-05
3713.29	0.0002139
3722.93	8e-06
3732.58	0.000293
3742.22	0.00017277
3751.86	0.00021514
3761.51	0.0003563
3771.15	0.0002968
3780.8	0.0001641
3790.44	0.00020969
3800.09	0.0003455
3809.73	0.00027042
3819.38	0.00020036
3829.02	0.000368
3838.67	0.00025228
3848.31	5.6e-05
3857.96	0.0003843
3867.6	0.000554
3877.25	0.0005495
3886.89	0.0003169
3896.54	0.0002956
3906.18	0.0002894
3915.83	0.0004609
3925.47	0.0003033
3935.12	0.0004021
3944.76	0.00027194
3954.41	0.000492
3964.05	0.0003252
3973.69	0.0005054
3983.34	0.0004859
3992.98	0.0004708
