Infrared Spectrum: METHANE, BROMOIODO-
Formula: C H2 Br I
CAS: 557-68-6
State: SOLUTION (10% IN CCl4 FOR 3800-1333 AND 10% IN CS2 FOR 1333-450 CM^-^1)
Class: COBLENTZ III
Instrument: DOW KBr FOREPRISM-GRATING
Instrument parameters: BLAZED AT 3.5, 12.0, 20.0 MICRON, CHANGED AT 5.0, 7.5, 14.9 MICRON
Sampling: TRANSMISSION
Path length: 0.010, 0.010 CM
Resolution: 4
Origin: DOW CHEMICAL COMPANY
1/CM	TRANSMITTANCE
445.957	1.006
454.468	1
462.978	0.994
471.489	1
480	1
488.51	1.002
497.021	1
505.532	0.993
514.042	0.945
522.553	0.934
531.064	1.009
539.574	1.013
548.085	1.021
556.596	1.019
565.106	1.001
573.617	0.965
582.128	1.015
590.638	0.998
599.149	0.93
607.66	0.742
616.17	0.266
624.681	0.614
633.192	0.899
641.702	0.867
650.213	0.956
658.724	0.972
667.234	0.974
675.745	0.978
684.256	0.98
692.766	0.978
701.277	0.98
709.788	0.973
718.298	0.966
726.809	0.978
735.32	0.976
743.83	0.964
752.341	0.883
760.852	0.833
769.362	0.957
777.873	0.968
786.384	0.961
794.894	0.98
803.405	0.98
811.916	0.977
820.426	0.98
828.937	0.972
837.448	0.941
845.958	0.859
854.469	0.812
862.98	0.837
871.49	0.869
880.001	0.9
888.512	0.934
897.022	0.949
905.533	0.953
914.044	0.954
922.554	0.956
931.065	0.957
939.576	0.957
948.086	0.962
956.597	0.961
965.108	0.958
973.618	0.958
982.129	0.961
990.64	0.962
999.15	0.962
1007.66	0.962
1016.17	0.962
1024.68	0.961
1033.19	0.96
1041.7	0.958
1050.21	0.956
1058.72	0.952
1067.24	0.946
1075.75	0.95
1084.26	0.95
1092.77	0.948
1101.28	0.869
1109.79	0.9001
1118.3	0.956
1126.81	0.933
1135.32	0.792
1143.83	0.2939
1152.34	0.3211
1160.85	0.872
1169.36	0.945
1177.87	0.944
1186.38	0.889
1194.9	0.961
1203.41	0.969
1211.92	0.966
1220.43	0.965
1228.94	0.964
1237.45	0.962
1245.96	0.958
1254.47	0.953
1262.98	0.952
1271.49	0.954
1280	0.958
1288.51	0.956
1297.02	0.965
1305.53	0.973
1314.04	0.973
1322.56	0.977
1331.07	0.974
1339.58	0.972
1348.09	0.974
1356.6	0.976
1365.11	0.972
1373.62	0.969
1382.13	0.992
1390.64	0.976
1399.15	0.968
1407.66	0.953
1416.17	0.966
1424.68	0.98
1433.19	0.98
1441.7	0.976
1450.22	0.974
1458.73	0.969
1467.24	0.958
1475.75	0.945
1484.26	0.916
1492.77	0.873
1501.28	0.823
1509.79	0.771
1518.3	0.727
1526.81	0.686
1535.32	0.6
1543.83	0.513
1552.34	0.501
1560.85	0.584
1569.36	0.667
1577.88	0.699
1586.39	0.731
1594.9	0.795
1603.41	0.881
1611.92	0.942
1620.43	0.97
1628.94	0.984
1637.45	0.997
1645.96	1.011
1654.47	1
1662.98	0.986
1671.49	0.982
1680	0.984
1688.51	0.982
1697.02	0.984
1705.54	0.977
1714.05	0.977
1722.56	0.978
1731.07	0.977
1739.58	0.976
1748.09	0.976
1756.6	0.976
1765.11	0.977
1773.62	0.98
1782.13	0.977
1790.64	0.974
1799.15	0.974
1807.66	0.972
1816.17	0.97
1824.68	0.97
1833.2	0.968
1841.71	0.969
1850.22	0.968
1858.73	0.97
1867.24	0.969
1875.75	0.974
1884.26	0.974
1892.77	0.972
1901.28	0.974
1909.79	0.976
1918.3	0.974
1926.81	0.976
1935.32	0.977
1943.83	0.976
1952.34	0.978
1960.86	1
1969.37	0.977
1977.88	0.977
1986.39	0.974
1994.9	0.976
2003.41	0.976
2011.92	0.977
2020.43	0.9801
2028.94	0.9839
2037.45	0.98
2045.96	0.9801
2054.47	0.978
2062.98	0.98
2071.49	0.9801
2080	0.984
2088.52	0.9809
2097.03	0.9811
2105.54	0.9798
2114.05	0.9739
2122.56	0.9619
2131.07	0.9645
2139.58	0.9761
2148.09	0.9782
2156.6	0.98
2165.11	0.981
2173.62	0.981
2182.13	0.98
2190.64	0.978
2199.15	0.9778
2207.66	0.9738
2216.18	0.973
2224.69	0.977
2233.2	0.9768
2241.71	0.9728
2250.22	0.973
2258.73	0.968
2267.24	0.961
2275.75	0.957
2284.26	0.9498
2292.77	0.946
2301.28	0.9485
2309.79	0.9563
2318.3	0.956
2326.81	0.9625
2335.32	0.9653
2343.84	0.966
2352.35	0.9683
2360.86	0.9706
2369.37	0.974
2377.88	0.977
2386.39	0.977
2394.9	0.9787
2403.41	0.98
2411.92	0.98
2420.43	0.98
2428.94	0.981
2437.45	0.981
2445.96	0.98
2454.47	0.98
2462.98	0.98
2471.5	0.981
2480.01	0.98
2488.52	0.981
2497.03	0.978
2505.54	0.981
2514.05	0.977
2522.56	0.9668
2531.07	0.9744
2539.58	0.981
2548.09	0.981
2556.6	0.981
2565.11	0.981
2573.62	0.981
2582.13	0.981
2590.64	0.981
2599.16	0.981
2607.67	0.981
2616.18	0.9805
2624.69	0.981
2633.2	0.9815
2641.71	0.9831
2650.22	0.9824
2658.73	0.984
2667.24	0.986
2675.75	0.981
2684.26	0.981
2692.77	0.981
2701.28	0.9846
2709.79	0.985
2718.3	0.9856
2726.82	0.981
2735.33	0.984
2743.84	0.9844
2752.35	0.985
2760.86	0.985
2769.37	0.985
2777.88	0.985
2786.39	0.988
2794.9	0.985
2803.41	0.984
2811.92	0.9857
2820.43	0.986
2828.94	0.985
2837.45	0.986
2845.96	0.988
2854.48	0.9937
2862.99	0.9923
2871.5	0.992
2880.01	0.992
2888.52	0.992
2897.03	0.994
2905.54	0.998
2914.05	0.992
2922.56	0.9995
2931.07	0.9985
2939.58	0.9962
2948.09	0.996
2956.6	0.9904
2965.11	0.9864
2973.62	0.9812
2982.14	0.9762
2990.65	0.974
2999.16	0.9778
3007.67	0.98
3016.18	0.9768
3024.69	0.9743
3033.2	0.9703
3041.71	0.9588
3050.22	0.9425
3058.73	0.8942
3067.24	0.864
3075.75	0.9202
3084.26	0.9565
3092.77	0.9698
3101.28	0.9769
3109.8	0.978
3118.31	0.978
3126.82	0.978
3135.33	0.977
3143.84	0.9799
3152.35	0.981
3160.86	0.981
3169.37	0.989
3177.88	0.99
3186.39	0.998
3194.9	1
3203.41	1.003
3211.92	1.003
3220.43	1.01
3228.94	1.01
3237.46	1.011
3245.97	1.0111
3254.48	1.015
3262.99	1.015
3271.5	1.0191
3280.01	1.0211
3288.52	1.0231
3297.03	1.026
3305.54	1.026
3314.05	1.026
3322.56	1.023
3331.07	1.025
3339.58	1.025
3348.09	1.0248
3356.6	1.0229
3365.12	1.026
3373.63	1.027
3382.14	1.03
3390.65	1.031
3399.16	1.0295
3407.67	1.0295
3416.18	1.026
3424.69	1.026
3433.2	1.022
3441.71	1.026
3450.22	1.022
3458.73	1.019
3467.24	1.0178
3475.75	1.017
3484.26	1.015
3492.78	1.013
3501.29	1.0105
3509.8	1.0103
3518.31	1.0107
3526.82	1.007
3535.33	1.009
3543.84	1.0067
3552.35	1.006
3560.86	1.009
3569.37	1.007
3577.88	1.003
3586.39	1.005
3594.9	1.003
3603.41	1.002
3611.92	1.0023
3620.43	1.004
3628.95	1.002
3637.46	1.002
3645.97	1.001
3654.48	1.002
3662.99	1.003
3671.5	1.002
3680.01	1.0024
3688.52	1.002
3697.03	1.001
3705.54	1.0006
3714.05	1.002
3722.56	1.001
3731.07	0.9991
3739.58	1.0015
3748.09	1.001
3756.61	1.0005
3765.12	1.001
3773.63	1.001
3782.14	0.998
3790.65	0.997
3799.16	0.994
