Infrared Spectrum: BROMOIODOMETHANE
Formula: C H2 Br I
CAS: 557-68-6
State: LIQUID
Class: COBLENTZ
Instrument: Not specified, most likely a prism, grating, or hybrid spectrometer.
Sampling: TRANSMISSION
Path length: 0.005 CM
Resolution: 4
Origin: WYANDOTTE CHEMICALS CORP., WYANDOTTE, MICHIGAN, USA
MICROMETERS	TRANSMITTANCE
2.007	1
2.04781	1
2.08863	0.998
2.12944	1
2.17026	1
2.21107	0.897
2.25189	0.943
2.2927	0.988
2.33352	0.991
2.37433	0.941
2.41515	0.871
2.45596	0.982
2.49678	1
2.53759	1
2.5784	1
2.61922	0.962
2.66003	0.982
2.70085	0.993
2.74166	0.989
2.78248	0.984
2.82329	0.969
2.86411	0.967
2.90492	0.962
2.94574	0.955
2.98655	0.957
3.02737	0.955
3.06818	0.95
3.10899	0.938
3.14981	0.929
3.19062	0.917
3.23144	0.866
3.27225	0.661
3.31307	0.319
3.35388	0.769
3.3947	0.601
3.43551	0.699
3.47633	0.74
3.51714	0.815
3.55796	0.808
3.59877	0.914
3.63958	0.929
3.6804	0.929
3.72121	0.935
3.76203	0.941
3.80284	0.957
3.84366	0.969
3.88447	0.967
3.92529	0.969
3.9661	0.96
4.00692	0.941
4.04773	0.923
4.08855	0.958
4.12936	0.957
4.17017	0.96
4.21099	0.96
4.2518	0.967
4.29262	0.972
4.33343	0.972
4.37425	0.972
4.41506	0.943
4.45588	0.88
4.49669	0.936
4.53751	0.965
4.57832	0.955
4.61914	0.897
4.65995	0.921
4.70076	0.965
4.74158	0.948
4.78239	0.782
4.82321	0.921
4.86402	0.976
4.90484	0.977
4.94565	0.97
4.98647	0.988
5.02728	0.988
5.0681	0.989
5.10891	0.988
5.14973	0.989
5.19054	0.991
5.23135	0.989
5.27217	0.988
5.31298	0.977
5.3538	0.97
5.39461	0.988
5.43543	0.993
5.47624	0.989
5.51706	0.97
5.55787	0.984
5.59869	0.988
5.6395	0.988
5.68032	0.984
5.72113	0.97
5.76195	0.969
5.80276	0.96
5.84357	0.916
5.88439	0.924
5.9252	0.941
5.96602	0.931
6.00683	0.919
6.04765	0.916
6.08846	0.911
6.12928	0.921
6.17009	0.924
6.21091	0.923
6.25172	0.929
6.29254	0.948
6.33335	0.952
6.37416	0.958
6.41498	0.952
6.45579	0.96
6.49661	0.952
6.53742	0.953
6.57824	0.945
6.61905	0.94
6.65987	0.94
6.70068	0.936
6.7415	0.924
6.78231	0.89
6.82313	0.841
6.86394	0.834
6.90475	0.829
6.94557	0.82
6.98638	0.822
7.0272	0.858
7.06801	0.849
7.10883	0.847
7.14964	0.83
7.19046	0.789
7.23127	0.729
7.27209	0.656
7.3129	0.692
7.35372	0.755
7.39453	0.808
7.43534	0.854
7.47616	0.878
7.51697	0.9
7.55779	0.9
7.5986	0.902
7.63942	0.902
7.68023	0.875
7.72105	0.813
7.76186	0.825
7.80268	0.87
7.84349	0.868
7.88431	0.864
7.92512	0.868
7.96593	0.859
8.00675	0.851
8.04756	0.835
8.08838	0.784
8.12919	0.74
8.17001	0.753
8.21082	0.736
8.25164	0.694
8.29245	0.647
8.33327	0.533
8.37408	0.174
8.4149	0.063
8.45571	0.411
8.49652	0.499
8.53734	0.423
8.57815	0.254
8.61897	0.063
8.65978	0.029
8.7006	0.023
8.74141	0.029
8.78223	0.058
8.82304	0.235
8.86386	0.405
8.90467	0.446
8.94549	0.324
8.9863	0.07
9.02711	0.116
9.06793	0.415
9.10874	0.557
9.14956	0.635
9.19037	0.671
9.23119	0.682
9.272	0.683
9.31282	0.671
9.35363	0.668
9.39445	0.707
9.43526	0.738
9.47608	0.76
9.51689	0.76
9.5577	0.76
9.59852	0.765
9.63933	0.77
9.68015	0.777
9.72096	0.788
9.76178	0.789
9.80259	0.806
9.84341	0.818
9.88422	0.83
9.92504	0.842
9.96585	0.858
10.0067	0.868
10.0475	0.878
10.0883	0.894
10.1291	0.894
10.1699	0.895
10.2107	0.899
10.2516	0.899
10.2924	0.899
10.3332	0.899
10.374	0.9
10.4148	0.904
10.4556	0.909
10.4964	0.916
10.5373	0.924
10.5781	0.924
10.6189	0.923
10.6597	0.904
10.7005	0.902
10.7413	0.899
10.7821	0.9
10.823	0.902
10.8638	0.904
10.9046	0.904
10.9454	0.9
10.9862	0.9
11.027	0.9
11.0678	0.894
11.1087	0.899
11.1495	0.9
11.1903	0.907
11.2311	0.907
11.2719	0.914
11.3127	0.917
11.3535	0.917
11.3944	0.919
11.4352	0.919
11.476	0.919
11.5168	0.921
11.5576	0.921
11.5984	0.921
11.6393	0.914
11.6801	0.916
11.7209	0.911
11.7617	0.909
11.8025	0.909
11.8433	0.909
11.8841	0.909
11.925	0.909
11.9658	0.904
12.0066	0.9
12.0474	0.894
12.0882	0.89
12.129	0.876
12.1698	0.851
12.2107	0.815
12.2515	0.793
12.2923	0.736
12.3331	0.644
12.3739	0.652
12.4147	0.753
12.4555	0.806
12.4964	0.837
12.5372	0.849
12.578	0.851
12.6188	0.851
12.6596	0.844
12.7004	0.832
12.7412	0.818
12.7821	0.81
12.8229	0.784
12.8637	0.758
12.9045	0.721
12.9453	0.678
12.9861	0.611
13.0269	0.512
13.0678	0.348
13.1086	0.177
13.1494	0.092
13.1902	0.083
13.231	0.189
13.2718	0.335
13.3126	0.49
13.3535	0.586
13.3943	0.658
13.4351	0.712
13.4759	0.731
13.5167	0.752
13.5575	0.764
13.5984	0.767
13.6392	0.764
13.68	0.755
13.7208	0.738
13.7616	0.721
13.8024	0.709
13.8432	0.688
13.8841	0.652
13.9249	0.603
13.9657	0.588
14.0065	0.625
14.0473	0.676
14.0881	0.721
14.1289	0.743
14.1698	0.755
14.2106	0.769
14.2514	0.779
14.2922	0.793
14.333	0.808
14.3738	0.822
14.4146	0.834
14.4555	0.847
14.4963	0.854
14.5371	0.861
14.5779	0.863
14.6187	0.863
14.6595	0.858
14.7003	0.854
14.7412	0.851
14.782	0.851
14.8228	0.849
14.8636	0.842
14.9044	0.841
14.9452	0.829
14.986	0.823
15.0269	0.81
15.0677	0.8
15.1085	0.782
15.1493	0.774
15.1901	0.758
15.2309	0.738
15.2718	0.731
15.3126	0.723
15.3534	0.702
15.3942	0.695
15.435	0.678
15.4758	0.644
15.5166	0.623
15.5575	0.582
15.5983	0.548
15.6391	0.524
15.6799	0.512
15.7207	0.516
15.7615	0.526
15.8023	0.553
15.8432	0.57
15.884	0.582
15.9248	0.601
15.9656	0.615
