Infrared Spectrum: 2-Butene, 1,4-dibromo-
Formula: C 4 H 6 Br 2
CAS: 6974-12-5
State: gas
Origin: Sadtler Research Labs Under US-EPA Contract
1/CM	ABSORBANCE
450	0.0218006
462	0.000360766
474	0.0116991
486	0.0107199
498	0.00876146
510	0.0104107
522	0.0154614
534	0.0153583
546	0.031129
558	0.0496826
570	0.0922015
582	0.0796262
594	0.0591141
606	0.0796777
618	0.129257
630	0.170282
642	0.153892
654	0.107508
666	0.0596295
678	0.0423642
690	0.0396843
702	0.0438588
714	0.0444773
726	0.055558
738	0.0630825
750	0.073854
762	0.0695763
774	0.0717409
786	0.0457657
798	0.0274182
810	0.0232952
822	0.0220583
834	0.0227283
846	0.0254082
858	0.0270059
870	0.0325205
882	0.0350974
894	0.0313866
906	0.0344789
918	0.0543211
930	0.115703
942	0.0831823
954	0.124773
966	0.126217
978	0.0788016
990	0.0481365
1002	0.0327266
1014	0.0282428
1026	0.026439
1038	0.0279336
1050	0.0304074
1062	0.0305105
1074	0.0378289
1086	0.0408696
1098	0.0343243
1110	0.042055
1122	0.0375712
1134	0.0572587
1146	0.066484
1158	0.0446834
1170	0.0517442
1182	0.0686486
1194	0.168168
1206	0.51538
1218	0.254907
1230	0.150233
1242	0.0975099
1254	0.0604025
1266	0.0775132
1278	0.0643194
1290	0.059681
1302	0.0620518
1314	0.0699371
1326	0.0337059
1338	0.0212852
1350	0.0177291
1362	0.0186568
1374	0.0169045
1386	0.0180383
1398	0.0157706
1410	0.0260782
1422	0.0459204
1434	0.0690609
1446	0.0806054
1458	0.0471573
1470	0.0268513
1482	0.0135545
1494	0.00865838
1506	0.00535995
1518	0.00726686
1530	0.00685455
1542	0.00350458
1554	0.00324689
1566	0.00608148
1578	0.008813
1590	0.00530841
1602	0.00767916
1614	0.00953453
1626	0.0113899
1638	0.0150491
1650	0.0143791
1662	0.00943145
1674	0.0116476
1686	0.00669994
1698	0.00711224
1710	0.0172137
1722	0.0204606
1734	0.0151006
1746	0.0152552
1758	0.0103076
1770	0.0102561
1782	0.00865838
1794	0.008143
1806	0.00669994
1818	0.00700917
1830	0.00793685
1842	0.00757609
1854	0.00860685
1866	0.010153
1878	0.00541149
1890	0.0029892
1902	0.00329843
1914	0.00262844
1926	0.00309228
1938	0.0025769
1950	0.00309228
1962	0.00242229
1974	0.00200998
1986	0.00267998
1998	0.0021646
2010	0.00200998
2022	0.00273151
2034	0.00221613
2046	0.00247382
2058	0.00170075
2070	0.00200998
2082	0.00231921
2094	0.00278305
2106	0.00175229
2118	0.0021646
2130	0.00221613
2142	0.00159768
2154	0.00231921
2166	0.00170075
2178	0.00206152
2190	0.00206152
2202	0.00180383
2214	0.00159768
2226	0.00247382
2238	0.00340151
2250	0.00350458
2262	0.00273151
2274	0.00371074
2286	0.00417458
2298	0.00443227
2310	0.00546303
2322	0.00561764
2334	0.00510226
2346	0.00803993
2358	0.0010823
2370	0.00396843
2382	0.00453534
2394	0.00422612
2406	0.00479303
2418	0.00340151
2430	0.00242229
2442	0.00190691
2454	0.00221613
2466	0.00200998
2478	0.00221613
2490	0.0025769
2502	0.00133999
2514	0.0029892
2526	0.00267998
2538	0.00170075
2550	0.00231921
2562	0.00221613
2574	0.00262844
2586	0.0025769
2598	0.00237075
2610	0.00309228
2622	0.00371074
2634	0.00427765
2646	0.00680302
2658	0.0073184
2670	0.00587533
2682	0.00499919
2694	0.00468996
2706	0.00479303
2718	0.00551457
2730	0.00551457
2742	0.00577226
2754	0.00551457
2766	0.00479303
2778	0.00432919
2790	0.00530841
2802	0.00628764
2814	0.00700917
2826	0.00834916
2838	0.0133483
2850	0.0197391
2862	0.0260267
2874	0.0272636
2886	0.0250475
2898	0.0242229
2910	0.0280367
2922	0.0311805
2934	0.0398904
2946	0.0530841
2958	0.0691125
2970	0.100602
2982	0.107096
2994	0.0690094
3006	0.0473634
3018	0.0452504
3030	0.0441681
3042	0.0511257
3054	0.0447865
3066	0.0265936
3078	0.0169045
3090	0.0178321
3102	0.0221098
3114	0.0124207
3126	0.00700917
3138	0.00566918
3150	0.00494765
3162	0.00396843
3174	0.00468996
3186	0.00432919
3198	0.00463842
3210	0.00458688
3222	0.00463842
3234	0.00458688
3246	0.0051538
3258	0.00422612
3270	0.00561764
3282	0.00479303
3294	0.00541149
3306	0.00566918
3318	0.0055661
3330	0.00505072
3342	0.00551457
3354	0.00613302
3366	0.00525688
3378	0.0051538
3390	0.00572072
3402	0.00561764
3414	0.00602995
3426	0.00530841
3438	0.00530841
3450	0.00541149
3462	0.00613302
3474	0.00597841
3486	0.00582379
3498	0.00572072
3510	0.00479303
3522	0.00608148
3534	0.00484457
3546	0.00597841
3558	0.00582379
3570	0.00793685
3582	0.00680302
3594	0.00793685
3606	0.00675148
3618	0.0066484
3630	0.00876146
3642	0.00453534
3654	0.00943145
3666	0.00633917
3678	0.000824608
3690	0.00767916
3702	0.00582379
3714	0.00659686
3726	0.0051538
3738	0.00510226
3750	0.013606
3762	0.00525688
3774	0.00608148
3786	0.00489611
3798	0.00886454
3810	0.00690609
3822	0.00510226
3834	0.00608148
3846	0.00932838
3858	0.00499919
3870	0.00587533
3882	0.00860685
3894	0.00561764
3906	0.00819454
3918	0.00979222
3930	0.00587533
3942	0.00788531
3954	0.00834916
3966	0.00602995
