Infrared Spectrum: Ethane, chloro-
Formula: C2 H5 Cl
CAS: 75-00-3
State: GAS (100 mmHg, N2 ADDED, TOTAL PRESSURE 600 mmHg)
Class: COBLENTZ
Instrument: DOW KBr FOREPRISM-GRATING
Instrument parameters: GRATING CHANGED AT 5.0, 7.5, 15.0 MICRON
Sampling: TRANSMISSION
Path length: 5 CM
Resolution: 2
Origin: DOW CHEMICAL COMPANY
1/CM	TRANSMITTANCE
456	0.8645
465	0.8658
474	0.8674
483	0.8705
492	0.8771
501	0.8808
510	0.8808
519	0.8804
528	0.879
537	0.8725
546	0.8644
555	0.8612
564	0.8638
573	0.8667
582	0.8695
591	0.8718
600	0.8717
609	0.8677
618	0.8585
627	0.8473
636	0.8243
645	0.7694
654	0.576
663	0.2394
672	0.1828
681	0.1705
690	0.1225
699	0.6019
708	0.8792
717	0.8949
726	0.8998
735	0.8987
744	0.8951
753	0.8863
762	0.8723
771	0.8555
780	0.845
789	0.736
798	0.8239
807	0.8359
816	0.8468
825	0.8632
834	0.8803
843	0.8935
852	0.9021
861	0.9056
870	0.9062
879	0.9047
888	0.9022
897	0.9009
906	0.9
915	0.8994
924	0.8975
933	0.8821
942	0.8441
951	0.6918
960	0.3843
969	0.3377
978	0.6185
987	0.2507
996	0.5542
1005	0.8305
1014	0.8321
1023	0.8445
1032	0.8461
1041	0.8457
1050	0.8505
1059	0.8563
1068	0.864
1077	0.8654
1086	0.871
1095	0.8869
1104	0.8951
1113	0.8999
1122	0.9039
1131	0.905
1140	0.9028
1149	0.8999
1158	0.9014
1167	0.9037
1176	0.9026
1185	0.896
1194	0.9032
1203	0.9017
1212	0.9007
1221	0.8988
1230	0.8946
1239	0.8877
1248	0.8687
1257	0.8383
1266	0.7224
1275	0.325
1284	0.2004
1293	0.2043
1302	0.1267
1311	0.4341
1320	0.5697
1329	0.6368
1338	0.7363
1347	0.7775
1356	0.7528
1365	0.7566
1374	0.7628
1383	0.6655
1392	0.7446
1401	0.5435
1410	0.7036
1419	0.7104
1428	0.6865
1437	0.6428
1446	0.607
1455	0.5038
1464	0.5811
1473	0.6215
1482	0.6307
1491	0.685
1500	0.747
1509	0.7999
1518	0.832
1527	0.8588
1536	0.8689
1545	0.8754
1554	0.8719
1563	0.8766
1572	0.8683
1581	0.869
1590	0.868
1599	0.8665
1608	0.8645
1617	0.8622
1626	0.8561
1635	0.8562
1644	0.8577
1653	0.8598
1662	0.8581
1671	0.8585
1680	0.86
1689	0.8591
1698	0.861
1707	0.8594
1716	0.8611
1725	0.8613
1734	0.8613
1743	0.8608
1752	0.8644
1761	0.8597
1770	0.8627
1779	0.8614
1788	0.8613
1797	0.862
1806	0.862
1815	0.8619
1824	0.8616
1833	0.861
1842	0.8599
1851	0.8579
1860	0.8512
1869	0.8597
1878	0.8564
1887	0.8572
1896	0.8591
1905	0.8593
1914	0.8574
1923	0.8546
1932	0.851
1941	0.848
1950	0.8449
1959	0.8502
1968	0.8558
1977	0.8565
1986	0.8572
1995	0.8569
2004	0.856
2013	0.8551
2022	0.854
2031	0.8521
2040	0.8506
2049	0.8511
2058	0.8524
2067	0.8537
2076	0.8552
2085	0.8569
2094	0.8579
2103	0.8583
2112	0.8581
2121	0.8574
2130	0.8555
2139	0.8541
2148	0.8532
2157	0.8524
2166	0.8528
2175	0.8531
2184	0.8543
2193	0.8543
2202	0.8538
2211	0.8528
2220	0.8516
2229	0.8486
2238	0.845
2247	0.8392
2256	0.8409
2265	0.8434
2274	0.8469
2283	0.8509
2292	0.8548
2301	0.8582
2310	0.8615
2319	0.8648
2328	0.8677
2337	0.8651
2346	0.8635
2355	0.8673
2364	0.8743
2373	0.8722
2382	0.8644
2391	0.8626
2400	0.8611
2409	0.8591
2418	0.8562
2427	0.8518
2436	0.8471
2445	0.8441
2454	0.842
2463	0.8452
2472	0.8533
2481	0.8574
2490	0.8575
2499	0.8568
2508	0.856
2517	0.8554
2526	0.8555
2535	0.8572
2544	0.8593
2553	0.8612
2562	0.8629
2571	0.8641
2580	0.8649
2589	0.8651
2598	0.8648
2607	0.8645
2616	0.8641
2625	0.8634
2634	0.8628
2643	0.8621
2652	0.8615
2661	0.8609
2670	0.8603
2679	0.8596
2688	0.8589
2697	0.8582
2706	0.8565
2715	0.854
2724	0.8451
2733	0.8279
2742	0.8207
2751	0.8176
2760	0.8148
2769	0.8433
2778	0.8558
2787	0.857
2796	0.8551
2805	0.8516
2814	0.8469
2823	0.8391
2832	0.829
2841	0.8185
2850	0.8085
2859	0.7746
2868	0.6777
2877	0.5847
2886	0.4821
2895	0.4806
2904	0.5146
2913	0.5383
2922	0.5056
2931	0.3273
2940	0.3532
2949	0.3387
2958	0.2417
2967	0.2361
2976	0.1467
2985	0.1413
2994	0.1261
3003	0.1328
3012	0.127
3021	0.2956
3030	0.3949
3039	0.5079
3048	0.6262
3057	0.7454
3066	0.8122
3075	0.838
3084	0.8479
3093	0.8511
3102	0.853
3111	0.8539
3120	0.8541
3129	0.8537
3138	0.8531
3147	0.8519
3156	0.8508
3165	0.8489
3174	0.8471
3183	0.8444
3192	0.8417
3201	0.8386
3210	0.8353
3219	0.8323
3228	0.8299
3237	0.8315
3246	0.8343
3255	0.8382
3264	0.8423
3273	0.8467
3282	0.8472
3291	0.8452
3300	0.8439
3309	0.8435
3318	0.8447
3327	0.8479
3336	0.8514
3345	0.8537
3354	0.8543
3363	0.8543
3372	0.8537
3381	0.8528
3390	0.8524
3399	0.8525
3408	0.8532
3417	0.8547
3426	0.8564
3435	0.8581
3444	0.8598
3453	0.8605
3462	0.8612
3471	0.8612
3480	0.861
3489	0.8622
3498	0.8653
3507	0.8665
3516	0.8664
3525	0.8663
3534	0.8663
3543	0.8666
3552	0.8669
3561	0.8668
3570	0.8667
3579	0.8665
3588	0.8667
3597	0.8668
3606	0.8666
3615	0.8662
3624	0.8655
3633	0.8643
3642	0.863
3651	0.8643
3660	0.8649
3669	0.8574
3678	0.8556
3687	0.8605
3696	0.8666
3705	0.869
3714	0.8698
3723	0.8698
3732	0.8684
3741	0.8612
3750	0.8588
3759	0.8598
3768	0.862
3777	0.8654
3786	0.8674
3795	0.8615
