Infrared Spectrum: Ethyl Chloride
Formula: C 2 H 5 Cl
CAS: 75-00-3
State: gas
Origin: Sadtler Research Labs Under US-EPA Contract
1/CM	ABSORBANCE
450	0.0104062
462	0.0171584
474	0.00762595
486	0.00762595
498	0.00611665
510	0.00619609
522	0.00603721
534	0.00413072
546	0.00389241
558	0.00476622
570	0
582	0.00603721
594	0.0103268
606	0.0100091
618	0.0221629
630	0.0381298
642	0.128211
654	0.388765
666	0.497991
678	0.538662
690	0.572026
702	0.0565591
714	0.0113595
726	0.00802314
738	0.0118361
750	0.0122333
762	0.0184294
774	0.0292328
786	0.0486154
798	0.0344757
810	0.0309804
822	0.0251021
834	0.0169201
846	0.00953244
858	0.00532228
870	0.00436904
882	0.00254198
894	0.0027803
906	0.00397185
918	0.00913526
930	0.0293917
942	0.0963571
954	0.274931
966	0.329505
978	0.27803
990	0.335224
1002	0.0795164
1014	0.0521901
1026	0.0390036
1038	0.0326486
1050	0.0282796
1062	0.022004
1074	0.015093
1086	0.0147753
1098	0.00818201
1110	0.00444847
1122	0.0021448
1134	0.0021448
1146	0.00158874
1158	0.00135043
1170	0.00262142
1182	0.00262142
1194	0.00389241
1206	0.00611665
1218	0.00953244
1230	0.0146958
1242	0.0290739
1254	0.0910348
1266	0.321323
1278	0.504107
1290	0.480197
1302	0.597446
1314	0.225442
1326	0.150295
1338	0.0833294
1350	0.0733998
1362	0.079437
1374	0.100964
1386	0.0946095
1398	0.18477
1410	0.123207
1422	0.11288
1434	0.127576
1446	0.198275
1458	0.154743
1470	0.11709
1482	0.10867
1494	0.074353
1506	0.0464706
1518	0.024546
1530	0.0140603
1542	0.00659327
1554	0.00468678
1566	0.00476622
1578	0.00619609
1590	0.00691102
1602	0.00762595
1614	0.00738764
1626	0.00842032
1638	0.00738764
1650	0.00659327
1662	0.00659327
1674	0.00667271
1686	0.00722877
1698	0.00683158
1710	0.00540172
1722	0.00540172
1734	0.00476622
1746	0.00222424
1758	0.00325692
1770	0.00174761
1782	0.00142987
1794	0.00142987
1806	0.00158874
1818	0.00190649
1830	0.000953244
1842	0.00127099
1854	0.00174761
1866	0.00135043
1878	0.00142987
1890	0.00158874
1902	0.00222424
1914	0.00309804
1926	0.00508397
1938	0.00564003
1950	0.00548115
1962	0.00341579
1974	0.00135043
1986	0.00198592
1998	0.00222424
2010	0.00285973
2022	0.00444847
2034	0.00436904
2046	0.00516341
2058	0.00333635
2070	0.00206536
2082	0.00174761
2094	0.00206536
2106	0.00222424
2118	0.00270086
2130	0.00333635
2142	0.00325692
2154	0.0036541
2166	0.00373354
2178	0.00325692
2190	0.00381298
2202	0.00492509
2214	0.00627552
2226	0.00810257
2238	0.0121539
2250	0.0104062
2262	0.00953244
2274	0.00722877
2286	0.00413072
2298	0.00111212
2310	7.9437e-05
2322	0.0021448
2334	0.00357467
2346	0.00357467
2358	0.00270086
2370	0.00270086
2382	0.00142987
2394	0.00373354
2406	0.00460735
2418	0.00627552
2430	0.00834089
2442	0.0109623
2454	0.0100091
2466	0.0108034
2478	0.00635496
2490	0.00508397
2502	0.00508397
2514	0.00524284
2526	0.00421016
2538	0.00357467
2550	0.0027803
2562	0.00206536
2574	0.00135043
2586	0.00142987
2598	0.00182705
2610	0.00166818
2622	0.00254198
2634	0.00262142
2646	0.00270086
2658	0.00333635
2670	0.0036541
2682	0.00405129
2694	0.00468678
2706	0.0057989
2718	0.00929413
2730	0.0169201
2742	0.0197004
2754	0.0208919
2766	0.0191443
2778	0.010724
2790	0.0100885
2802	0.0109623
2814	0.0150136
2826	0.0231162
2838	0.0292328
2850	0.0414661
2862	0.0822967
2874	0.155379
2886	0.205027
2898	0.197639
2910	0.219008
2922	0.299398
2934	0.401157
2946	0.441431
2958	0.591091
2970	0.631921
2982	0.627711
2994	0.775941
3006	0.684668
3018	0.492827
3030	0.338719
3042	0.225919
3054	0.124001
3066	0.0584656
3078	0.027803
3090	0.0146958
3102	0.0106446
3114	0.00953244
3126	0.00842032
3138	0.00802314
3150	0.00802314
3162	0.00849976
3174	0.00969131
3186	0.0109623
3198	0.0118361
3210	0.0135837
3222	0.015808
3234	0.0140603
3246	0.0111212
3258	0.0101679
3270	0.00683158
3282	0.00611665
3294	0.00667271
3306	0.00738764
3318	0.00627552
3330	0.00659327
3342	0.00421016
3354	0.00222424
3366	0.00174761
3378	0.00198592
3390	0.00190649
3402	0.00206536
3414	0.00206536
3426	0.00174761
3438	0.00246255
3450	0.00198592
3462	0.00166818
3474	0.00222424
3486	0.00142987
3498	0.00142987
3510	0.00142987
3522	0.000635496
3534	0.00166818
3546	0.000317748
3558	0.00158874
3570	0.000714933
3582	0.00158874
3594	0.00079437
3606	0.00103268
3618	0.000238311
3630	0.00254198
3642	0.00357467
3654	0.00285973
3666	0.00452791
3678	0.00270086
3690	0.00333635
3702	0.000873807
3714	0.000873807
3726	0.000953244
3738	0.000873807
3750	0.00119156
3762	0.00135043
3774	0.00349523
3786	0.00262142
3798	0.00190649
3810	0.00135043
3822	7.9437e-05
3834	0.00103268
3846	0.00142987
3858	0.000635496
3870	7.9437e-05
3882	7.9437e-05
3894	0.000635496
3906	0.00142987
3918	0.00174761
3930	0.000556059
3942	0.00270086
3954	0.00254198
3966	0.0027803
