Infrared Spectrum: Hydrazine, 1,1-dimethyl-
Formula: C 2 H 8 N 2
CAS: 57-14-7
State: gas
Origin: Sadtler Research Labs Under US-EPA Contract
1/CM	ABSORBANCE
450	0.0519207
462	0.0511981
474	0.0439726
486	0.0306569
498	0.018838
510	0.0163091
522	0.0105286
534	0.00769004
546	0.00934159
558	0.00392244
570	0.00361277
582	0.00356116
594	0.00371599
606	0.00221927
618	0.00299344
630	0.0046966
642	0.00500627
654	0.00619332
666	0.00479982
678	0.00738037
690	0.0098577
702	0.0098577
714	0.00954803
726	0.0112512
738	0.0165671
750	0.0286441
762	0.0517142
774	0.0907837
786	0.132589
798	0.163452
810	0.176303
822	0.126447
834	0.0807712
846	0.0517658
858	0.0553786
870	0.0872226
882	0.16851
894	0.261203
906	0.293254
918	0.259552
930	0.210057
942	0.0811325
954	0.0370051
966	0.0286441
978	0.0296247
990	0.0495982
1002	0.0781907
1014	0.109106
1026	0.13744
1038	0.15411
1050	0.134034
1062	0.11406
1074	0.0838163
1086	0.043921
1098	0.0419597
1110	0.04325
1122	0.0451596
1134	0.0442306
1146	0.059301
1158	0.0419081
1170	0.0380373
1182	0.0250313
1194	0.0237927
1206	0.0249281
1218	0.0268377
1230	0.0220379
1242	0.0178058
1254	0.0178058
1266	0.0275087
1278	0.0402566
1290	0.0534174
1302	0.0651331
1314	0.0504756
1326	0.0337536
1338	0.0241539
1350	0.0139866
1362	0.0136253
1374	0.0138834
1386	0.0140898
1398	0.0170832
1410	0.0259087
1422	0.0667846
1434	0.111996
1446	0.147195
1458	0.172123
1470	0.117312
1482	0.102758
1494	0.0650815
1506	0.0421662
1518	0.0257023
1530	0.0184251
1542	0.0244636
1554	0.0359729
1566	0.0568237
1578	0.0817002
1590	0.0906805
1602	0.0814422
1614	0.0606945
1626	0.0362825
1638	0.0232249
1650	0.0120254
1662	0.0125415
1674	0.0101674
1686	0.0121802
1698	0.0101674
1710	0.0098577
1722	0.00665782
1734	0.00660621
1746	0.00454177
1758	0.00402566
1770	0.00356116
1782	0.00258055
1794	0.00366438
1806	0.00252894
1818	0.00350955
1830	0.00227088
1842	0.00216766
1854	0.00263216
1866	0.00165155
1878	0.00227088
1890	0.00263216
1902	0.00211605
1914	0.00216766
1926	0.00325149
1938	0.00289022
1950	0.00335471
1962	0.00278699
1974	0.00227088
1986	0.00196122
1998	0.00221927
2010	0.00294183
2022	0.00263216
2034	0.00242572
2046	0.00165155
2058	0.00206444
2070	0.00196122
2082	0.00134189
2094	0.00129028
2106	0.00258055
2118	0.00242572
2130	0.00247733
2142	0.00190961
2154	0.00206444
2166	0.00252894
2178	0.00201283
2190	0.00247733
2202	0.00278699
2214	0.00242572
2226	0.00247733
2238	0.00149672
2250	0.00196122
2262	0.00123866
2274	0.0013935
2286	0.00170316
2298	0.000928998
2310	0.000412888
2322	0.000103222
2334	0.000154833
2346	0.000722554
2358	5.1611e-05
2370	0.00428371
2382	0.00392244
2394	0.00221927
2406	0.00268377
2418	0.00325149
2430	0.00350955
2442	0.00428371
2454	0.00428371
2466	0.00526432
2478	0.00639976
2490	0.00650299
2502	0.00645137
2514	0.00691587
2526	0.00639976
2538	0.00541916
2550	0.00500627
2562	0.00547077
2574	0.00547077
2586	0.0051611
2598	0.00500627
2610	0.00459338
2622	0.00495466
2634	0.0060901
2646	0.00794809
2658	0.0112512
2670	0.0147607
2682	0.0194573
2694	0.0219347
2706	0.0259603
2718	0.0338052
2730	0.0644621
2742	0.14095
2754	0.240456
2766	0.367161
2778	0.51611
2790	0.366386
2802	0.317046
2814	0.422075
2826	0.2547
2838	0.314001
2850	0.311627
2862	0.226417
2874	0.221979
2886	0.188638
2898	0.15922
2910	0.141672
2922	0.1618
2934	0.245049
2946	0.312401
2958	0.41872
2970	0.407108
2982	0.385999
2994	0.280351
3006	0.198806
3018	0.109157
3030	0.0557399
3042	0.0205412
3054	0.0121802
3066	0.0112512
3078	0.0120254
3090	0.0134189
3102	0.0126963
3114	0.0133672
3126	0.0185283
3138	0.0275087
3150	0.040205
3162	0.0557399
3174	0.0663201
3186	0.0770036
3198	0.082784
3210	0.0813389
3222	0.06952
3234	0.0509917
3246	0.0350955
3258	0.0211089
3270	0.0114576
3282	0.00769004
3294	0.00578043
3306	0.00366438
3318	0.00278699
3330	0.00227088
3342	0.00325149
3354	0.0046966
3366	0.00459338
3378	0.00392244
3390	0.00485143
3402	0.00485143
3414	0.00340633
3426	0.00340633
3438	0.00381921
3450	0.0046966
3462	0.00449016
3474	0.00335471
3486	0.00227088
3498	0.00108383
3510	0.00232249
3522	0.00051611
3534	0.000412888
3546	0.00252894
3558	0.000774165
3570	0.00541916
3582	0.00196122
3594	0.00304505
3606	0.00242572
3618	0.0037676
3630	0.00418049
3642	0.00258055
3654	0.00268377
3666	0.00149672
3678	0.00263216
3690	0.00190961
3702	0.00247733
3714	0.00196122
3726	0.00196122
3738	0.00454177
3750	0.00196122
3762	0.00356116
3774	0.00190961
3786	0.000877387
3798	0.00201283
3810	0.00319988
3822	0.00206444
3834	0.00154833
3846	0.00227088
3858	0.00325149
3870	0.00227088
3882	0.00206444
3894	0.0028386
3906	0.00319988
3918	0.00278699
3930	0.00232249
3942	0.00289022
3954	0.00299344
3966	0.00242572
