Infrared Spectrum: Ethanol
Formula: C 2 H 6 O
CAS: 64-17-5
State: gas
Origin: Sadtler Research Labs Under US-EPA Contract
1/CM	ABSORBANCE
450	0.0167025
462	0.0357589
474	0.0195049
486	0.0165904
498	0.0160299
510	0.00325081
522	0.00627743
534	0.00459598
546	0.00818308
558	0.0134516
570	0.00952824
582	0.00896776
594	0.00773469
606	0.00874357
618	0.0143484
630	0.019617
642	0.0135637
654	0.0140121
666	0.0134516
678	0.0116581
690	0.0113218
702	0.00919195
714	0.00807098
726	0.00560485
738	0.00549275
750	0.0102008
762	0.0110976
774	0.0131153
786	0.017375
798	0.0295936
810	0.0319476
822	0.0347501
834	0.0409154
846	0.0592993
858	0.11546
870	0.14057
882	0.15929
894	0.167697
906	0.151891
918	0.0868752
930	0.0792526
942	0.0873236
954	0.0983091
966	0.106044
978	0.119047
990	0.169715
1002	0.287977
1014	0.422269
1026	0.585483
1038	0.863147
1050	1.05203
1062	1.08174
1074	1.0314
1086	0.800373
1098	0.49928
1110	0.356917
1122	0.228454
1134	0.170724
1146	0.149425
1158	0.136534
1170	0.126109
1182	0.123643
1194	0.132499
1206	0.166912
1218	0.232713
1230	0.270378
1242	0.272844
1254	0.277776
1266	0.234283
1278	0.160075
1290	0.119495
1302	0.102345
1314	0.0992058
1326	0.105147
1338	0.124091
1350	0.164783
1362	0.250313
1374	0.354899
1386	0.371377
1398	0.368575
1410	0.378888
1422	0.232153
1434	0.146287
1446	0.129584
1458	0.125212
1470	0.0992058
1482	0.0826155
1494	0.0666977
1506	0.0494348
1518	0.0304904
1530	0.019617
1542	0.0140121
1554	0.011546
1566	0.00526856
1578	0.00952824
1590	0.00437178
1602	0.00280242
1614	0.00482017
1626	0.00280242
1638	0.00425969
1650	0.00179355
1662	0.000448388
1674	0.00145726
1686	0.00919195
1698	0.00627743
1710	0.00414759
1722	0.0122186
1734	0.0151331
1746	0.00964034
1758	0.00594114
1770	0.00582904
1782	0.00605324
1794	0.00392339
1806	0.00526856
1818	0.00582904
1830	0.00493227
1842	0.00885566
1854	0.00851937
1866	0.0110976
1878	0.0140121
1890	0.0177113
1902	0.0212984
1914	0.0246613
1926	0.0260065
1938	0.0257823
1950	0.0215226
1962	0.0165904
1974	0.0140121
1986	0.0117702
1998	0.0107613
2010	0.00907986
2022	0.00773469
2034	0.00627743
2046	0.00560485
2058	0.00302662
2070	0.00325081
2082	0.00392339
2094	0.00302662
2106	0.00414759
2118	0.00437178
2130	0.00482017
2142	0.00325081
2154	0.00302662
2166	0.00325081
2178	0.00347501
2190	0.00403549
2202	0.00302662
2214	0.00246613
2226	0.00257823
2238	0.00269033
2250	0.00302662
2262	0.00302662
2274	0.00392339
2286	0.00336291
2298	0.00269033
2310	0.00156936
2322	0.000560485
2334	0.000672582
2346	0.00448388
2358	0.000448388
2370	0.0072863
2382	0.00627743
2394	0.00414759
2406	0.00504436
2418	0.00605324
2430	0.00482017
2442	0.00470807
2454	0.0038113
2466	0.00470807
2478	0.0036992
2490	0.00448388
2502	0.0038113
2514	0.00302662
2526	0.00269033
2538	0.00235404
2550	0.00291452
2562	0.00291452
2574	0.00403549
2586	0.00571695
2598	0.0072863
2610	0.00840727
2622	0.0106492
2634	0.0128912
2646	0.0137879
2658	0.015021
2670	0.0168145
2682	0.0181597
2694	0.0205138
2706	0.0251097
2718	0.0312751
2730	0.036992
2742	0.0453993
2754	0.0510041
2766	0.0563848
2778	0.0622138
2790	0.0747687
2802	0.0894534
2814	0.112994
2826	0.14752
2838	0.199421
2850	0.282148
2862	0.412741
2874	0.52495
2886	0.647024
2898	0.701279
2910	0.758
2922	0.768985
2934	0.761811
2946	0.812479
2958	0.908995
2970	0.994188
2982	0.978719
2994	0.774478
3006	0.593105
3018	0.366333
3030	0.210742
3042	0.108062
3054	0.0495469
3066	0.0252218
3078	0.0159178
3090	0.0121065
3102	0.0102008
3114	0.00896776
3126	0.00773469
3138	0.0072863
3150	0.0073984
3162	0.00627743
3174	0.0075105
3186	0.00964034
3198	0.00975244
3210	0.00717421
3222	0.00784679
3234	0.0073984
3246	0.00784679
3258	0.00717421
3270	0.00538066
3282	0.00605324
3294	0.00448388
3306	0.00504436
3318	0.00605324
3330	0.00627743
3342	0.00425969
3354	0.00515646
3366	0.00482017
3378	0.00504436
3390	0.00549275
3402	0.00392339
3414	0.00414759
3426	0.00235404
3438	0.00291452
3450	0.00224194
3462	0.00650163
3474	0.00907986
3486	0.00459598
3498	0.00482017
3510	0.00123307
3522	0.00291452
3534	0.00156936
3546	0.00212984
3558	0.00100887
3570	0.00616534
3582	0.00594114
3594	0.0139
3606	0.0190565
3618	0.0364315
3630	0.0719663
3642	0.128351
3654	0.183166
3666	0.192695
3678	0.2122
3690	0.163213
3702	0.108846
3714	0.0462961
3726	0.0212984
3738	0.00952824
3750	0.0113218
3762	0.00235404
3774	0.00325081
3786	0.00325081
3798	0.00414759
3810	0.00863147
3822	0.0076226
3834	0.0103129
3846	0.0072863
3858	0.012667
3870	0.00594114
3882	0.00302662
3894	0.00302662
3906	0.00571695
3918	0.000672582
3930	0.000672582
3942	0.000224194
3954	0.00257823
3966	0.00425969
