Infrared Spectrum: Cyclopropylmethyl chloride
Formula: C 4 H 7 Cl
CAS: 5911-08-0
State: gas
Origin: EPA-IR VAPOR PHASE LIBRARY
1/CM	ABSORBANCE
549.8	0.0005479
559.445	0.0004376
569.09	0.0004156
578.734	0.0005511
588.379	0.0003574
598.024	0.0007002
607.669	0.0010804
617.313	0.0010574
626.958	0.0010338
636.603	0.001603
646.248	0.002033
655.893	0.002973
665.537	0.005073
675.182	0.010123
684.827	0.020923
694.472	0.045363
704.116	0.084453
713.761	0.088193
723.406	0.091403
733.051	0.027703
742.695	0.012463
752.34	0.013333
761.985	0.015233
771.63	0.016273
781.275	0.020053
790.919	0.017073
800.564	0.020063
810.209	0.025033
819.854	0.035273
829.498	0.037203
839.143	0.035123
848.788	0.025883
858.433	0.013373
868.078	0.008623
877.722	0.006673
887.367	0.006603
897.012	0.011803
906.657	0.026663
916.301	0.030003
925.946	0.031693
935.591	0.016703
945.236	0.011073
954.88	0.027083
964.525	0.047723
974.17	0.046853
983.815	0.041073
993.46	0.017403
1003.1	0.018113
1012.75	0.031443
1022.39	0.035513
1032.04	0.036083
1041.68	0.026143
1051.33	0.018303
1060.97	0.015233
1070.62	0.009693
1080.26	0.008273
1089.91	0.008013
1099.55	0.009083
1109.2	0.010093
1118.84	0.011863
1128.49	0.011893
1138.13	0.010453
1147.78	0.007933
1157.42	0.006703
1167.07	0.006793
1176.71	0.007563
1186.36	0.009833
1196	0.010223
1205.64	0.011283
1215.29	0.007633
1224.93	0.006203
1234.58	0.008043
1244.22	0.015673
1253.87	0.049793
1263.51	0.073833
1273.16	0.071863
1282.8	0.057223
1292.45	0.018603
1302.09	0.010583
1311.74	0.005653
1321.38	0.002893
1331.03	0.002433
1340.67	0.002933
1350.32	0.004513
1359.96	0.008453
1369.61	0.012003
1379.25	0.011743
1388.9	0.009713
1398.54	0.006113
1408.18	0.007113
1417.83	0.009783
1427.47	0.014253
1437.12	0.016673
1446.76	0.018643
1456.41	0.017153
1466.05	0.013933
1475.7	0.009283
1485.34	0.006033
1494.99	0.003143
1504.63	0.001853
1514.28	0.001263
1523.92	0.0010256
1533.57	0.0009224
1543.21	0.0008904
1552.86	0.0008803
1562.5	0.0010533
1572.15	0.0011146
1581.79	0.0011592
1591.44	0.0010093
1601.08	0.0009599
1610.73	0.0008606
1620.37	0.0009398
1630.01	0.0008923
1639.66	0.0009923
1649.3	0.0009353
1658.95	0.0009223
1668.59	0.0008285
1678.24	0.0007009
1687.88	0.0006598
1697.53	0.0006551
1707.17	0.0008024
1716.82	0.0007928
1726.46	0.001273
1736.11	0.001443
1745.75	0.001643
1755.4	0.001563
1765.04	0.001403
1774.69	0.001863
1784.33	0.002443
1793.98	0.002913
1803.62	0.002973
1813.27	0.002583
1822.91	0.002293
1832.55	0.002343
1842.2	0.002463
1851.84	0.002553
1861.49	0.002573
1871.13	0.002803
1880.78	0.003193
1890.42	0.003143
1900.07	0.003003
1909.71	0.002663
1919.36	0.002743
1929	0.002783
1938.65	0.002593
1948.29	0.002123
1957.94	0.001723
1967.58	0.001443
1977.23	0.001653
1986.87	0.001743
1996.52	0.001753
2006.16	0.001893
2015.81	0.001893
2025.45	0.002133
2035.1	0.002583
2044.74	0.003113
2054.38	0.003863
2064.03	0.004013
2073.67	0.004033
2083.32	0.003933
2092.96	0.003273
2102.61	0.002883
2112.25	0.002263
2121.9	0.001843
2131.54	0.001813
2141.19	0.001813
2150.83	0.001893
2160.48	0.001783
2170.12	0.001533
2179.77	0.001483
2189.41	0.001373
2199.06	0.001403
2208.7	0.001593
2218.35	0.001743
2227.99	0.001823
2237.64	0.001633
2247.28	0.001563
2256.92	0.001453
2266.57	0.001413
2276.21	0.001223
2285.86	0.001173
2295.5	0.0009788
2305.15	0.0009019
2314.79	0.0009374
2324.44	0.001173
2334.08	0.001293
2343.73	0.001273
2353.37	0.0009343
2363.02	0.0007512
2372.66	0.0007152
2382.31	0.0008201
2391.95	0.0009385
2401.6	0.0010096
2411.24	0.0010995
2420.89	0.0009414
2430.53	0.0009366
2440.18	0.000795
2449.82	0.0008482
2459.47	0.0011263
2469.11	0.001583
2478.75	0.001723
2488.4	0.001683
2498.04	0.001263
2507.69	0.0008489
2517.33	0.0007131
2526.98	0.0006617
2536.62	0.0005991
2546.27	0.0006235
2555.91	0.000601
2565.56	0.0006461
2575.2	0.0006825
2584.85	0.0007148
2594.49	0.0006909
2604.14	0.0007775
2613.78	0.0006878
2623.43	0.0007487
2633.07	0.0007071
2642.72	0.0006908
2652.36	0.0007451
2662.01	0.0007874
2671.65	0.000798
2681.29	0.0008364
2690.94	0.0009846
2700.58	0.001463
2710.23	0.001843
2719.87	0.001823
2729.52	0.001553
2739.16	0.0011202
2748.81	0.0010202
2758.45	0.0010166
2768.1	0.0008767
2777.74	0.0009751
2787.39	0.0011167
2797.03	0.001373
2806.68	0.001603
2816.32	0.002223
2825.97	0.003023
2835.61	0.004213
2845.26	0.006403
2854.9	0.009723
2864.55	0.013563
2874.19	0.015263
2883.84	0.015713
2893.48	0.013803
2903.12	0.011573
2912.77	0.010713
2922.41	0.012973
2932.06	0.018703
2941.7	0.028663
2951.35	0.041573
2960.99	0.046233
2970.64	0.054103
2980.28	0.053523
2989.93	0.055783
2999.57	0.061393
3009.22	0.066463
3018.86	0.063313
3028.51	0.058613
3038.15	0.042943
3047.8	0.027673
3057.44	0.021783
3067.09	0.023083
3076.73	0.032993
3086.38	0.042783
3096.02	0.041513
3105.67	0.032373
3115.31	0.016353
3124.95	0.007873
3134.6	0.003513
3144.24	0.001943
3153.89	0.001203
3163.53	0.0010225
3173.18	0.00088
3182.82	0.000703
3192.47	0.0005968
3202.11	0.0005554
3211.76	0.0007564
3221.4	0.0006273
3231.05	0.00062
3240.69	0.0004743
3250.34	0.0003718
3259.98	0.0003764
3269.63	0.0004143
3279.27	0.0006021
3288.92	0.0005275
3298.56	0.0005257
3308.21	0.0005154
3317.85	0.0003303
3327.49	0.000413
3337.14	0.000513
3346.78	0.0002648
3356.43	0.0003492
3366.07	0.0002873
3375.72	0.0003769
3385.36	0.0002902
3395.01	0.0004557
3404.65	0.0003542
3414.3	0.00022876
3423.94	0.0005486
3433.59	0.0005531
3443.23	0.0004505
3452.88	0.0004367
3462.52	0.0004403
3472.17	0.0005465
3481.81	0.0004348
3491.46	0.0004596
3501.1	0.0004035
3510.75	0.0003911
3520.39	0.00026263
3530.04	0.000118
3539.68	0.00024435
3549.32	0.00025593
3558.97	0.0001895
3568.61	0.00022269
3578.26	0.0003374
3587.9	0.0002735
3597.55	0.0003973
3607.19	0.000268
3616.84	0.00022516
3626.48	0.0003074
3636.13	0.0004565
3645.77	0.0008018
3655.42	0.0007341
3665.06	0.0008934
3674.71	0.0008522
3684.35	0.0006641
3694	0.0006039
3703.64	0.0004806
3713.29	0.0003972
3722.93	0.0005502
3732.58	0.0004453
3742.22	0.0003729
3751.86	0.000567
3761.51	0.0007134
3771.15	0.0005274
3780.8	0.0007643
3790.44	0.0008507
3800.09	0.0006709
3809.73	0.0008377
3819.38	0.0007911
3829.02	0.0011106
3838.67	0.001203
3848.31	0.001283
3857.96	0.001233
3867.6	0.0010555
3877.25	0.0010486
3886.89	0.0009026
3896.54	0.0009549
3906.18	0.0008973
3915.83	0.0010448
3925.47	0.0011366
3935.12	0.0009363
3944.76	0.0009678
3954.41	0.0009925
3964.05	0.0006628
3973.69	0.0007167
3983.34	0.0008848
3992.98	0.0006919
