Infrared Spectrum: 2,4-Hexadiyne
Formula: C 6 H 6
CAS: 2809-69-0
State: gas
Instrument: HP-GC/MS/IRD
Origin: NIST Mass Spectrometry Data Center
1/CM	ABSORBANCE
550	0.0006594
562	0.0022624
574	0.0049112
586	0.003948
598	0.0013972
610	0.0003528
622	0.0001456
634	4.2e-05
646	0.000175
658	0.0001274
670	0.000189
682	0.0001722
694	8.82e-05
706	0.0001624
718	0.0001092
730	0.0001022
742	8.26e-05
754	0.0001316
766	7.84e-05
778	0.0001316
790	0.00014
802	0.0001554
814	0.000154
826	0.0002268
838	0.0001876
850	9.8e-05
862	5.18e-05
874	9.38e-05
886	7.7e-05
898	9.24e-05
910	8.4e-05
922	8.54e-05
934	0.0002212
946	0.000308
958	0.0001806
970	0.0001232
982	0.0001442
994	0.0002002
1006	0.000273
1018	0.0003038
1030	0.0003472
1042	0.0003458
1054	0.0003626
1066	0.0002702
1078	0.0002044
1090	0.0001848
1102	0.0001344
1114	0.0001288
1126	0.0001568
1138	0.0001652
1150	0.0002058
1162	0.0001806
1174	0.0002464
1186	0.0003038
1198	0.0003458
1210	0.0003878
1222	0.0005502
1234	0.000651
1246	0.0006986
1258	0.0007574
1270	0.000812
1282	0.0008624
1294	0.0008246
1306	0.0008736
1318	0.001078
1330	0.001568
1342	0.001596
1354	0.0023702
1366	0.0039382
1378	0.0040264
1390	0.0030856
1402	0.0020272
1414	0.0025802
1426	0.0017864
1438	0.001442
1450	0.0017136
1462	0.00196
1474	0.0017668
1486	0.0016058
1498	0.0017654
1510	0.0015036
1522	0.001358
1534	0.001526
1546	0.0010836
1558	0.0008596
1570	0.0008344
1582	0.0006062
1594	0.0004858
1606	0.0004046
1618	0.0003752
1630	0.0003178
1642	0.0002534
1654	0.0002282
1666	0.000182
1678	0.0001862
1690	0.0001764
1702	0.0001442
1714	0.0001582
1726	0.0001638
1738	0.000182
1750	0.0001624
1762	0.0001526
1774	0.000133
1786	0.0001274
1798	0.0001134
1810	0.0001288
1822	0.0001316
1834	0.0001008
1846	0.0001148
1858	0.0001232
1870	0.0001064
1882	9.38e-05
1894	8.96e-05
1906	0.0001064
1918	7.98e-05
1930	9.8e-05
1942	8.26e-05
1954	7.56e-05
1966	7.84e-05
1978	9.52e-05
1990	7e-05
2002	9.1e-05
2014	8.68e-05
2026	0.000203
2038	0.0005124
2050	0.0005544
2062	0.0002352
2074	9.38e-05
2086	6.02e-05
2098	5.18e-05
2110	7.98e-05
2122	0.0001064
2134	0.0001918
2146	0.0003052
2158	0.0002884
2170	0.0001666
2182	0.0001526
2194	0.0002534
2206	0.0005264
2218	0.000588
2230	0.0001666
2242	9.66e-05
2254	9.1e-05
2266	5.74e-05
2278	5.74e-05
2290	4.76e-05
2302	9.24e-05
2314	0.0001428
2326	0.0002478
2338	0.000266
2350	0.000252
2362	0.0002478
2374	0.0002296
2386	0.0002058
2398	0.0001904
2410	0.0002044
2422	0.0002156
2434	0.0002016
2446	0.0002436
2458	0.0002352
2470	0.0002016
2482	0.0001834
2494	0.000189
2506	0.000175
2518	0.0001638
2530	0.0001204
2542	9.24e-05
2554	7.98e-05
2566	4.9e-05
2578	5.46e-05
2590	8.4e-05
2602	6.58e-05
2614	0.0001148
2626	0.0001344
2638	0.0001456
2650	8.82e-05
2662	0.000105
2674	9.52e-05
2686	0.0001246
2698	0.000112
2710	0.000231
2722	0.0003304
2734	0.0006692
2746	0.0009716
2758	0.0007196
2770	0.000399
2782	0.0002898
2794	0.0003192
2806	0.000392
2818	0.000525
2830	0.0008834
2842	0.001589
2854	0.0030898
2866	0.0052584
2878	0.004515
2890	0.0022988
2902	0.002114
2914	0.0046102
2926	0.014
2938	0.0130998
2950	0.0039606
2962	0.0019698
2974	0.0023226
2986	0.0021518
2998	0.0021182
3010	0.0022484
3022	0.001638
3034	0.0017752
3046	0.0012446
3058	0.0009436
3070	0.0008092
3082	0.0006132
3094	0.0005138
3106	0.0003402
3118	0.0002716
3130	0.0001848
3142	0.0001988
3154	0.0001316
3166	0.000168
3178	0.0002548
3190	0.0003542
3202	0.0004466
3214	0.0003836
3226	0.0001918
3238	0.0001218
3250	9.94e-05
3262	6.58e-05
3274	7.42e-05
3286	6.16e-05
3298	8.54e-05
3310	5.18e-05
3322	6.3e-05
3334	6.58e-05
3346	0.0001204
3358	7.14e-05
3370	0.0001036
3382	0.000112
3394	8.26e-05
3406	3.78e-05
3418	2.52e-05
3430	7.14e-05
3442	5.18e-05
3454	8.26e-05
3466	0.0001624
3478	0.000168
3490	8.96e-05
3502	2.66e-05
3514	2.52e-05
3526	4.06e-05
3538	2.94e-05
3550	3.64e-05
3562	4.9e-05
3574	4.2e-05
3586	6.86e-05
3598	9.52e-05
3610	4.76e-05
3622	7.28e-05
3634	0.000105
3646	0.0001274
3658	8.82e-05
3670	5.6e-05
3682	9.8e-05
3694	4.06e-05
3706	8.12e-05
3718	6.58e-05
3730	3.78e-05
3742	5.6e-06
3754	5.6e-06
3766	9.1e-05
3778	3.78e-05
3790	0.0001036
3802	0.0001162
3814	0.00014
3826	0.0001022
3838	0.0001316
