Infrared Spectrum: Bromocyclopropane
Formula: C 3 H 5 Br
CAS: 4333-56-6
State: gas
Instrument: HP-GC/MS/IRD
Origin: NIST Mass Spectrometry Data Center
1/CM	ABSORBANCE
550	0.0026868
562	0.0024276
574	8.64e-05
586	0.0001008
598	0.0002064
610	0.000108
622	0.0001416
634	0.0001032
646	0.0001092
658	7.2e-05
670	9.6e-06
682	9.72e-05
694	9.84e-05
706	9.84e-05
718	0.0001188
730	0.0001728
742	0.0002484
754	0.0005544
766	0.00108
778	0.0013848
790	0.0016848
802	0.0017592
814	0.0016848
826	0.0013332
838	0.0011124
850	0.0010092
862	0.0010152
874	0.0007452
886	0.0006192
898	0.0004368
910	0.0005748
922	0.000672
934	0.0007416
946	0.0006432
958	0.0004824
970	0.0003864
982	0.0004308
994	0.000774
1006	0.001788
1018	0.0032676
1030	0.004062
1042	0.003882
1054	0.0025404
1066	0.0012768
1078	0.0006216
1090	0.00039
1102	0.0002232
1114	0.0001896
1126	9.96e-05
1138	0.0002508
1150	0.00018
1162	0.00015
1174	0.0001284
1186	0.0001932
1198	0.0003
1210	0.0005148
1222	0.000834
1234	0.001524
1246	0.0056088
1258	0.012
1270	0.01122
1282	0.0078996
1294	0.0009636
1306	0.0003336
1318	0.0002688
1330	0.0002424
1342	0.0001968
1354	0.000228
1366	0.0002004
1378	0.0002352
1390	0.0003168
1402	0.0005484
1414	0.0008544
1426	0.0011364
1438	0.0016596
1450	0.0016644
1462	0.0013812
1474	0.0005904
1486	0.0002448
1498	0.00015
1510	0.0001044
1522	0.000126
1534	0.0001428
1546	0.0001344
1558	0.0001236
1570	0.0001668
1582	0.0001692
1594	0.0001668
1606	0.000162
1618	0.000144
1630	0.0001272
1642	0.00012
1654	0.0001008
1666	6.72e-05
1678	0.0001236
1690	0.0001356
1702	0.0001608
1714	0.0002136
1726	0.0002184
1738	0.0001884
1750	0.0001272
1762	0.0001212
1774	0.0001704
1786	0.0002592
1798	0.0002976
1810	0.0002664
1822	0.000204
1834	0.0001704
1846	0.000168
1858	0.000228
1870	0.0002832
1882	0.0003792
1894	0.0003888
1906	0.0003408
1918	0.0002988
1930	0.000216
1942	0.0001932
1954	0.0001764
1966	0.0001524
1978	0.0001392
1990	0.0001236
2002	0.000108
2014	0.0001068
2026	0.000156
2038	0.0002064
2050	0.0002748
2062	0.000354
2074	0.0003888
2086	0.0003864
2098	0.0003348
2110	0.000294
2122	0.0002604
2134	0.0002676
2146	0.0001992
2158	0.0001656
2170	0.0001368
2182	0.0001488
2194	0.0001704
2206	0.0001848
2218	0.0002112
2230	0.0002064
2242	0.0002136
2254	0.0001368
2266	0.0001248
2278	8.64e-05
2290	0.0001248
2302	0.0001164
2314	0.0001356
2326	0.00012
2338	0.0001008
2350	8.28e-05
2362	8.76e-05
2374	0.0001032
2386	4.8e-05
2398	0.000102
2410	5.4e-05
2422	7.92e-05
2434	6.6e-05
2446	0.0001092
2458	0.0001308
2470	0.000132
2482	0.000144
2494	0.000132
2506	0.0001188
2518	0.0001068
2530	0.000102
2542	5.52e-05
2554	6e-05
2566	4.56e-05
2578	8.4e-05
2590	7.44e-05
2602	7.92e-05
2614	8.4e-05
2626	4.68e-05
2638	0.0001032
2650	7.92e-05
2662	9.12e-05
2674	9.12e-05
2686	7.56e-05
2698	3.84e-05
2710	7.56e-05
2722	6e-05
2734	9.6e-05
2746	3.48e-05
2758	2.52e-05
2770	3.6e-06
2782	2.88e-05
2794	5.52e-05
2806	4.8e-05
2818	6.48e-05
2830	9e-05
2842	0.0001452
2854	0.0001656
2866	0.0001344
2878	0.0001608
2890	0.0001356
2902	0.0001308
2914	0.0001308
2926	0.0001332
2938	0.0001476
2950	0.0002064
2962	0.000258
2974	0.000372
2986	0.0007884
2998	0.001398
3010	0.0025644
3022	0.002664
3034	0.0026508
3046	0.0014712
3058	0.0010476
3070	0.0010524
3082	0.0015948
3094	0.001932
3106	0.0017316
3118	0.001044
3130	0.0003924
3142	0.0002244
3154	0.0001092
3166	5.64e-05
3178	6.12e-05
3190	6.84e-05
3202	7.56e-05
3214	6.24e-05
3226	3.12e-05
3238	3e-05
3250	4.68e-05
3262	6.36e-05
3274	6.84e-05
3286	0.0001092
3298	6.84e-05
3310	4.44e-05
3322	2.16e-05
3334	4.8e-05
3346	9.6e-05
3358	7.92e-05
3370	8.52e-05
3382	9.72e-05
3394	0.0001644
3406	7.92e-05
3418	6.6e-05
3430	3.24e-05
3442	0.000114
3454	0.0001092
3466	0.000108
3478	8.76e-05
3490	0.0001308
3502	9e-05
3514	0.0001176
3526	1.32e-05
3538	8.28e-05
3550	8.4e-05
3562	5.64e-05
3574	3.36e-05
3586	7.68e-05
3598	5.76e-05
3610	4.92e-05
3622	2.88e-05
3634	0.0001104
3646	0.0001308
3658	8.4e-06
3670	4.92e-05
3682	8.28e-05
3694	4.44e-05
3706	5.4e-05
3718	7.8e-05
3730	0.0001056
3742	7.44e-05
3754	9e-05
3766	5.16e-05
3778	0.000138
3790	0.0001128
3802	0.0001212
3814	0.0001152
3826	0.000144
3838	0.0001296
