Infrared Spectrum: Cyclopropyl bromide
Formula: C3 H5 Br
CAS: 4333-56-6
State: SOLUTION (10% CCl4 FOR 3800-1330, 10% CS2 FOR 1330-460 CM^-^1)
Class: COBLENTZ III
Instrument: DOW KBr FOREPRISM-GRATING
Instrument parameters: BLAZED AT 3.5, 12.0, 20.0 MICRON AND CHANGED AT 5.0, 7.5, 14.9 MICRON
Sampling: TRANSMISSION
Path length: 0.010 CM, 0.010 CM
Resolution: 2
Origin: DOW CHEMICAL COMPANY
1/CM	TRANSMITTANCE
3800	0.9022
3791	0.9042
3782	0.9057
3773	0.9069
3764	0.9054
3755	0.9044
3746	0.9045
3737	0.912
3728	0.9161
3719	0.9136
3710	0.9123
3701	0.9102
3692	0.9065
3683	0.9017
3674	0.9018
3665	0.9032
3656	0.9037
3647	0.9032
3638	0.904
3629	0.9003
3620	0.8985
3611	0.8976
3602	0.8973
3593	0.899
3584	0.9016
3575	0.9025
3566	0.9037
3557	0.9038
3548	0.9047
3539	0.9045
3530	0.9048
3521	0.904
3512	0.904
3503	0.9041
3494	0.9035
3485	0.9027
3476	0.902
3467	0.9012
3458	0.9002
3449	0.8992
3440	0.8985
3431	0.8988
3422	0.8991
3413	0.899
3404	0.8976
3395	0.8979
3386	0.9003
3377	0.9
3368	0.8992
3359	0.8981
3350	0.8969
3341	0.8969
3332	0.8966
3323	0.8947
3314	0.8873
3305	0.8874
3296	0.8915
3287	0.8923
3278	0.8926
3269	0.8925
3260	0.8923
3251	0.892
3242	0.8917
3233	0.8915
3224	0.8923
3215	0.8928
3206	0.8919
3197	0.8925
3188	0.8925
3179	0.8915
3170	0.8913
3161	0.8908
3152	0.8903
3143	0.8878
3134	0.8868
3125	0.8845
3116	0.881
3107	0.8689
3098	0.8285
3089	0.7593
3080	0.791
3071	0.8282
3062	0.832
3053	0.8402
3044	0.854
3035	0.854
3026	0.8344
3017	0.7105
3008	0.6064
2999	0.7271
2990	0.8262
2981	0.8479
2972	0.8656
2963	0.8735
2954	0.8778
2945	0.8806
2936	0.8839
2927	0.8857
2918	0.8878
2909	0.8926
2900	0.8951
2891	0.8939
2882	0.8927
2873	0.8933
2864	0.8935
2855	0.8819
2846	0.8886
2837	0.8944
2828	0.8972
2819	0.8998
2810	0.9014
2801	0.9029
2792	0.9033
2783	0.9034
2774	0.9043
2765	0.9047
2756	0.9053
2747	0.9054
2738	0.9051
2729	0.905
2720	0.905
2711	0.9048
2702	0.9046
2693	0.9044
2684	0.905
2675	0.9058
2666	0.9057
2657	0.9062
2648	0.9052
2639	0.9045
2630	0.9054
2621	0.9074
2612	0.9086
2603	0.909
2594	0.9082
2585	0.9059
2576	0.9042
2567	0.9057
2558	0.9083
2549	0.9092
2540	0.9092
2531	0.9087
2522	0.9068
2513	0.9049
2504	0.903
2495	0.9012
2486	0.9013
2477	0.9049
2468	0.9041
2459	0.9035
2450	0.9055
2441	0.9088
2432	0.9083
2423	0.9071
2414	0.9079
2405	0.9075
2396	0.9061
2387	0.9063
2378	0.9089
2369	0.9101
2360	0.9107
2351	0.9119
2342	0.9082
2333	0.9054
2324	0.9058
2315	0.9013
2306	0.8974
2297	0.8966
2288	0.8969
2279	0.8977
2270	0.8988
2261	0.8976
2252	0.8958
2243	0.8927
2234	0.8924
2225	0.8891
2216	0.8937
2207	0.895
2198	0.8948
2189	0.8955
2180	0.8943
2171	0.8968
2162	0.8977
2153	0.8954
2144	0.8935
2135	0.8913
2126	0.8898
2117	0.8907
2108	0.888
2099	0.8871
2090	0.8836
2081	0.8683
2072	0.8585
2063	0.8796
2054	0.8844
2045	0.8857
2036	0.888
2027	0.8912
2018	0.893
2009	0.8924
2000	0.888
1991	0.8854
1982	0.895
1973	0.8946
1964	0.8915
1955	0.8881
1946	0.8875
1937	0.8925
1928	0.8952
1919	0.8913
1910	0.8786
1901	0.874
1892	0.8709
1883	0.8679
1874	0.8817
1865	0.8876
1856	0.8854
1847	0.8863
1838	0.8892
1829	0.8911
1820	0.8926
1811	0.8924
1802	0.8864
1793	0.8759
1784	0.8689
1775	0.8834
1766	0.8916
1757	0.8951
1748	0.8925
1739	0.8864
1730	0.8824
1721	0.8798
1712	0.8859
1703	0.8939
1694	0.8975
1685	0.899
1676	0.8999
1667	0.9014
1658	0.9022
1649	0.9042
1640	0.9043
1631	0.899
1622	0.8903
1613	0.8818
1604	0.8689
1595	0.8264
1586	0.7471
1577	0.7432
1568	0.7164
1559	0.6986
1550	0.6417
1541	0.6879
1532	0.7376
1523	0.7671
1514	0.7923
1505	0.823
1496	0.8464
1487	0.8681
1478	0.8752
1469	0.8736
1460	0.8684
1451	0.5346
1442	0.7253
1433	0.8214
1424	0.6004
1415	0.8383
1406	0.8807
1397	0.8941
1388	0.8972
1379	0.8963
1370	0.9042
1361	0.9029
1352	0.9023
1343	0.9004
1334	0.8968
1325	0.8931
1316	0.8896
1307	0.8842
1298	0.8743
1289	0.8598
1280	0.8095
1271	0.6023
1262	0.0251
1253	0.4759
1244	0.7678
1235	0.7764
1226	0.8369
1217	0.8759
1208	0.8807
1199	0.8118
1190	0.8693
1181	0.8862
1172	0.8867
1163	0.8619
1154	0.8654
1145	0.8855
1136	0.8931
1127	0.8987
1118	0.8989
1109	0.894
1100	0.8878
1091	0.8194
1082	0.8363
1073	0.8483
1064	0.8362
1055	0.7811
1046	0.4744
1037	0.6565
1028	0.5305
1019	0.1796
1010	0.682
1001	0.8513
992	0.8813
983	0.8963
974	0.9043
965	0.9092
956	0.9097
947	0.9061
938	0.8913
929	0.7634
920	0.7183
911	0.8512
902	0.8747
893	0.8966
884	0.9001
875	0.8496
866	0.7391
857	0.6283
848	0.7604
839	0.6592
830	0.8302
821	0.8498
812	0.7982
803	0.4601
794	0.677
785	0.7167
776	0.732
767	0.7892
758	0.7188
749	0.834
740	0.8734
731	0.8835
722	0.8904
713	0.8857
704	0.893
695	0.8959
686	0.8947
677	0.8905
668	0.8871
659	0.8785
650	0.862
641	0.8679
632	0.8755
623	0.8712
614	0.8833
605	0.8904
596	0.8941
587	0.8942
578	0.8902
569	0.8839
560	0.8626
551	0.4384
542	0.6482
533	0.8384
524	0.8549
515	0.8602
506	0.8613
497	0.8587
488	0.8536
479	0.8469
470	0.8388
461	0.8286
