Infrared Spectrum: Cyclopropane, bromo-
Formula: C3 H5 Br
CAS: 4333-56-6
State: GAS (50 mmHg, N2 ADDED, TOTAL PRESSURE 600 mmHg)
Class: COBLENTZ
Instrument: DOW KBr FOREPRISM-GRATING
Instrument parameters: GRATING CHANGED AT 5.0, 7.5, 15.0 MICRON
Sampling: TRANSMISSION
Path length: 10 CM
Resolution: 2
Origin: DOW CHEMICAL COMPANY
1/CM	TRANSMITTANCE
462	0.8485
471	0.8495
480	0.8488
489	0.8474
498	0.846
507	0.8443
516	0.843
525	0.8416
534	0.8064
543	0.6824
552	0.5842
561	0.6239
570	0.7643
579	0.8562
588	0.8556
597	0.8529
606	0.8509
615	0.848
624	0.8447
633	0.8443
642	0.8415
651	0.8448
660	0.8474
669	0.8533
678	0.8689
687	0.8693
696	0.8671
705	0.8704
714	0.871
723	0.8696
732	0.8659
741	0.8588
750	0.8327
759	0.8061
768	0.7609
777	0.7348
786	0.7269
795	0.4955
804	0.6086
813	0.675
822	0.7455
831	0.7891
840	0.767
849	0.7317
858	0.7604
867	0.772
876	0.7943
885	0.8142
894	0.8474
903	0.8557
912	0.833
921	0.7938
930	0.789
939	0.7389
948	0.802
957	0.8487
966	0.8707
975	0.8822
984	0.8792
993	0.8639
1002	0.8363
1011	0.7527
1020	0.563
1029	0.5369
1038	0.5111
1047	0.5445
1056	0.6955
1065	0.7933
1074	0.8425
1083	0.8555
1092	0.8656
1101	0.8746
1110	0.8809
1119	0.8836
1128	0.8827
1137	0.877
1146	0.8706
1155	0.867
1164	0.866
1173	0.8654
1182	0.8687
1191	0.8601
1200	0.8594
1209	0.8432
1218	0.8658
1227	0.8354
1236	0.8442
1245	0.7801
1254	0.5619
1263	0.1093
1272	0.362
1281	0.2479
1290	0.7883
1299	0.8608
1308	0.862
1317	0.8594
1326	0.8588
1335	0.8529
1344	0.8645
1353	0.8636
1362	0.8649
1371	0.8654
1380	0.8595
1389	0.8552
1398	0.8536
1407	0.8351
1416	0.8062
1425	0.7708
1434	0.7578
1443	0.7271
1452	0.6857
1461	0.7387
1470	0.7724
1479	0.844
1488	0.8597
1497	0.8671
1506	0.8696
1515	0.8716
1524	0.8676
1533	0.8651
1542	0.8619
1551	0.8646
1560	0.8619
1569	0.8625
1578	0.8597
1587	0.8556
1596	0.8562
1605	0.8619
1614	0.8635
1623	0.8652
1632	0.8648
1641	0.8651
1650	0.8708
1659	0.8708
1668	0.8709
1677	0.8713
1686	0.8705
1695	0.8692
1704	0.8683
1713	0.8664
1722	0.8571
1731	0.8597
1740	0.8559
1749	0.8652
1758	0.8696
1767	0.8697
1776	0.8637
1785	0.8531
1794	0.8487
1803	0.8515
1812	0.8632
1821	0.8679
1830	0.8713
1839	0.8684
1848	0.8666
1857	0.8651
1866	0.8632
1875	0.8571
1884	0.8476
1893	0.8419
1902	0.842
1911	0.8529
1920	0.8567
1929	0.8645
1938	0.8681
1947	0.8671
1956	0.8657
1965	0.8674
1974	0.8718
1983	0.8765
1992	0.8774
2001	0.8856
2010	0.8855
2019	0.8842
2028	0.882
2037	0.8789
2046	0.8753
2055	0.8705
2064	0.8636
2073	0.8551
2082	0.8486
2091	0.8511
2100	0.8586
2109	0.866
2118	0.8677
2127	0.8687
2136	0.8695
2145	0.8723
2154	0.8772
2163	0.8795
2172	0.8787
2181	0.8772
2190	0.8763
2199	0.8783
2208	0.8765
2217	0.8738
2226	0.8721
2235	0.8716
2244	0.8738
2253	0.877
2262	0.8802
2271	0.8838
2280	0.8832
2289	0.8817
2298	0.8809
2307	0.8806
2316	0.881
2325	0.8851
2334	0.889
2343	0.8897
2352	0.89
2361	0.8897
2370	0.8895
2379	0.8892
2388	0.8888
2397	0.8883
2406	0.8879
2415	0.8872
2424	0.8865
2433	0.8859
2442	0.8846
2451	0.8816
2460	0.8776
2469	0.876
2478	0.877
2487	0.8804
2496	0.8839
2505	0.8847
2514	0.8856
2523	0.8865
2532	0.8867
2541	0.8866
2550	0.8864
2559	0.8861
2568	0.8856
2577	0.885
2586	0.8848
2595	0.8856
2604	0.8906
2613	0.8855
2622	0.8835
2631	0.8832
2640	0.883
2649	0.8839
2658	0.8891
2667	0.8914
2676	0.8924
2685	0.8927
2694	0.8931
2703	0.8931
2712	0.8932
2721	0.893
2730	0.8928
2739	0.8926
2748	0.8921
2757	0.8915
2766	0.891
2775	0.8904
2784	0.8897
2793	0.8889
2802	0.8881
2811	0.8872
2820	0.8861
2829	0.885
2838	0.8813
2847	0.8755
2856	0.8708
2865	0.8705
2874	0.8711
2883	0.8719
2892	0.8736
2901	0.8772
2910	0.8823
2919	0.8812
2928	0.8776
2937	0.8731
2946	0.8681
2955	0.8628
2964	0.8571
2973	0.8508
2982	0.8377
2991	0.8175
3000	0.7624
3009	0.5821
3018	0.5993
3027	0.5786
3036	0.6899
3045	0.8001
3054	0.8136
3063	0.8084
3072	0.7984
3081	0.7715
3090	0.6962
3099	0.6989
3108	0.6557
3117	0.846
3126	0.8662
3135	0.8755
3144	0.8794
3153	0.8813
3162	0.8826
3171	0.8836
3180	0.8838
3189	0.8839
3198	0.8841
3207	0.884
3216	0.8839
3225	0.8838
3234	0.8838
3243	0.8839
3252	0.8839
3261	0.8838
3270	0.8837
3279	0.8831
3288	0.8811
3297	0.8785
3306	0.8761
3315	0.8742
3324	0.8732
3333	0.8739
3342	0.8803
3351	0.8811
3360	0.8795
3369	0.8782
3378	0.8767
3387	0.8768
3396	0.8773
3405	0.8781
3414	0.8791
3423	0.8801
3432	0.8812
3441	0.882
3450	0.8828
3459	0.8835
3468	0.8844
3477	0.8856
3486	0.8867
3495	0.8872
3504	0.8878
3513	0.8883
3522	0.8884
3531	0.8886
3540	0.8887
3549	0.8886
3558	0.8882
3567	0.8877
3576	0.8863
3585	0.8846
3594	0.8825
3603	0.8801
3612	0.878
3621	0.8763
3630	0.8752
3639	0.8753
3648	0.877
3657	0.8795
3666	0.882
3675	0.8844
3684	0.8868
3693	0.8886
3702	0.8899
3711	0.8898
3720	0.8895
3729	0.8887
3738	0.8878
3747	0.8872
3756	0.8872
3765	0.8858
3774	0.886
3783	0.8864
3792	0.8869
