Infrared Spectrum: 1-Propene, 1,2,3-trichloro-
Formula: C 3 H 3 Cl 3
CAS: 96-19-5
State: gas
Origin: Sadtler Research Labs Under US-EPA Contract
1/CM	ABSORBANCE
450	0.0345766
462	0.0302471
474	0.00937066
486	0.0256804
498	0.0355848
510	0.0259769
522	0.0110313
534	0.00859966
546	0.0164876
558	0.0865897
570	0.0843953
582	0.0136408
594	0.00723558
606	0.00931136
618	0.015598
630	0.0518945
642	0.0961976
654	0.0839208
666	0.0780493
678	0.0660691
690	0.0568764
702	0.154972
714	0.303657
726	0.432533
738	0.236283
750	0.289838
762	0.295057
774	0.147558
786	0.148033
798	0.196072
810	0.359881
822	0.55708
834	0.434431
846	0.139433
858	0.0434728
870	0.0341614
882	0.098392
894	0.141094
906	0.0479209
918	0.0600197
930	0.146669
942	0.139967
954	0.0362965
966	0.00765073
978	0.00533772
990	0.00498187
1002	0.00468533
1014	0.00486326
1026	0.00711696
1038	0.0138781
1050	0.0437693
1062	0.101476
1074	0.0936473
1086	0.0574695
1098	0.0715848
1110	0.112922
1122	0.0973244
1134	0.0294168
1146	0.00990444
1158	0.0142339
1170	0.0205799
1182	0.0786424
1194	0.0819637
1206	0.022715
1218	0.0230115
1230	0.0257397
1242	0.0556902
1254	0.139552
1266	0.291617
1278	0.193581
1290	0.126267
1302	0.0846918
1314	0.0066425
1326	0.000474464
1338	0.000711696
1350	0.00154201
1362	0.00272817
1374	0.00409225
1386	0.00510049
1398	0.00355848
1410	0.00438879
1422	0.0280527
1434	0.103908
1446	0.0832091
1458	0.0155387
1470	0.00059308
1482	0.00160132
1494	0.00189786
1506	0.0022537
1518	0.00326194
1530	0.00183855
1542	0.00124547
1554	0.00361779
1566	0.0142339
1578	0.0317298
1590	0.0470906
1602	0.115829
1614	0.20829
1626	0.134036
1638	0.060079
1650	0.024257
1662	0.0132257
1674	0.00877758
1686	0.0100824
1698	0.0074135
1710	0.00468533
1722	0.00658319
1734	0.00978582
1746	0.0104382
1758	0.014827
1770	0.0172586
1782	0.0145898
1794	0.0127512
1806	0.0100231
1818	0.00794727
1830	0.00575288
1842	0.00432948
1854	0.00355848
1866	0.00361779
1878	0.00355848
1890	0.00397364
1902	0.00409225
1914	0.00421087
1926	0.0044481
1938	0.0036771
1950	0.00450741
1962	0.00379571
1974	0.0044481
1986	0.00421087
1998	0.00409225
2010	0.00332125
2022	0.00183855
2034	0.00255024
2046	0.00302471
2058	0.00332125
2070	0.00355848
2082	0.00658319
2094	0.00771004
2106	0.00824381
2118	0.00859966
2130	0.00765073
2142	0.00711696
2154	0.00682042
2166	0.00628665
2178	0.00652388
2190	0.00729488
2202	0.00747281
2214	0.00776935
2226	0.00788796
2238	0.00776935
2250	0.0081845
2262	0.00859966
2274	0.00771004
2286	0.00830312
2298	0.00806589
2310	0.0100231
2322	0.0110906
2334	0.00753212
2346	0.00302471
2358	0.0118616
2370	0.000177924
2382	0.000355848
2394	0.00616803
2406	0.00687973
2418	0.00705765
2430	0.00676111
2442	0.00658319
2454	0.00628665
2466	0.00628665
2478	0.00687973
2490	0.00646457
2502	0.0066425
2514	0.0066425
2526	0.00652388
2538	0.00610872
2550	0.00628665
2562	0.00545634
2574	0.0044481
2586	0.00421087
2598	0.00397364
2610	0.00474464
2622	0.00533772
2634	0.00610872
2646	0.00634596
2658	0.00901482
2670	0.00800658
2682	0.00599011
2694	0.00717627
2706	0.00806589
2718	0.00599011
2730	0.00480395
2742	0.00379571
2754	0.0036771
2766	0.00361779
2778	0.00243163
2790	0.0029654
2802	0.00302471
2814	0.00249094
2826	0.00349917
2838	0.00498187
2850	0.0110313
2862	0.0149456
2874	0.00859966
2886	0.00557495
2898	0.00604942
2910	0.00349917
2922	0.00510049
2934	0.0067018
2946	0.0135815
2958	0.0464382
2970	0.0841581
2982	0.0519538
2994	0.0182076
3006	0.0106754
3018	0.0106161
3030	0.00699834
3042	0.00450741
3054	0.00486326
3066	0.0144118
3078	0.0613245
3090	0.0771004
3102	0.0606128
3114	0.0166062
3126	0.00349917
3138	0.00183855
3150	0.00106754
3162	0.00201647
3174	0.00166062
3186	0.0014827
3198	0.00243163
3210	0.0021944
3222	0.0021944
3234	0.00201647
3246	0.000711696
3258	0.000711696
3270	0.00189786
3282	0.00166062
3294	0.00243163
3306	0.00249094
3318	0.0029654
3330	0.00332125
3342	0.00326194
3354	0.00183855
3366	0.00302471
3378	0.00385502
3390	0.00314332
3402	0.00403294
3414	0.00320263
3426	0.0029654
3438	0.00124547
3450	0.00201647
3462	0.00189786
3474	0.00314332
3486	0.00302471
3498	0.00249094
3510	0.00201647
3522	0.00183855
3534	0.00486326
3546	0.00622734
3558	0.00415156
3570	0.00682042
3582	0.00765073
3594	0.00569357
3606	0.00699834
3618	0.0052191
3630	0.00569357
3642	0.00320263
3654	0.0021944
3666	0.0037364
3678	0.00432948
3690	0.00646457
3702	0.0044481
3714	0.00421087
3726	0.00527841
3738	0.00699834
3750	0.0029654
3762	0.00699834
3774	0.00355848
3786	0.00735419
3798	0.00865897
3810	0.0081252
3822	0.00640526
3834	0.00842174
3846	0.0081845
3858	0.0051598
3870	0.00794727
3882	0.00569357
3894	0.0100824
3906	0.00925205
3918	0.0101417
3930	0.0107347
3942	0.0104382
3954	0.00901482
3966	0.00723558
