Infrared Spectrum: Carbon disulfide
Formula: C S 2
CAS: 75-15-0
State: gas
Origin: Sadtler Research Labs Under US-EPA Contract
1/CM	ABSORBANCE
450	0
462	0.0259201
474	0.0171861
486	0.0195809
498	0.0171861
510	0.0172566
522	0.0202853
534	0.0114105
546	0.0213418
558	0.0233844
570	0.0150027
582	0.0134531
594	0.0190879
606	0.0228209
618	0.0158479
630	0.0188061
642	0.0183835
654	0.0209896
666	0.0190879
678	0.0218348
690	0.0228209
702	0.0202148
714	0.018454
726	0.0247227
738	0.0199331
750	0.0244409
762	0.0228914
774	0.0252157
786	0.0214122
798	0.0215531
810	0.0273288
822	0.0263427
834	0.0239479
846	0.0251453
858	0.024934
870	0.0253566
882	0.0238775
894	0.023807
906	0.0269766
918	0.0266244
930	0.0245818
942	0.0279627
954	0.0280331
966	0.0262723
978	0.0259201
990	0.0271175
1002	0.0267653
1014	0.026554
1026	0.0273992
1038	0.0283149
1050	0.0273288
1062	0.0274696
1074	0.0296531
1086	0.0266244
1098	0.029301
1110	0.0316958
1122	0.026554
1134	0.0292305
1146	0.0298644
1158	0.0295827
1170	0.029301
1182	0.0294418
1194	0.0299349
1206	0.0308505
1218	0.0306392
1230	0.0300053
1242	0.030921
1254	0.0321888
1266	0.0316253
1278	0.0313436
1290	0.0306392
1302	0.0317662
1314	0.0307801
1326	0.0324705
1338	0.0275401
1350	0.0322592
1362	0.028667
1374	0.029794
1386	0.0308505
1398	0.0271175
1410	0.0300757
1422	0.0301462
1434	0.0280331
1446	0.0340201
1458	0.0271175
1470	0.0396549
1482	0.0538123
1494	0.105652
1506	0.267512
1518	0.572707
1530	0.633281
1542	0.70435
1554	0.0617011
1566	0.0283149
1578	0.0303575
1590	0.0353584
1602	0.0371192
1614	0.0349358
1626	0.0283853
1638	0.0278923
1650	0.0236662
1662	0.0332453
1674	0.0251453
1686	0.0221166
1698	0.0201444
1710	0.0311323
1722	0.0305688
1734	0.0217644
1746	0.0256383
1758	0.0276105
1770	0.0260609
1782	0.0287375
1794	0.0262018
1806	0.0300757
1818	0.0304279
1830	0.026554
1842	0.028174
1854	0.0311323
1866	0.0283149
1878	0.0295827
1890	0.0281036
1902	0.0300053
1914	0.0283853
1926	0.028667
1938	0.0285966
1950	0.0288079
1962	0.0288784
1974	0.0287375
1986	0.0283149
1998	0.0274696
2010	0.0278218
2022	0.0269062
2034	0.0277514
2046	0.027047
2058	0.0271879
2070	0.0264131
2082	0.0262018
2094	0.0256383
2106	0.0264836
2118	0.0259905
2130	0.0271175
2142	0.0290897
2154	0.032541
2166	0.037401
2178	0.0380349
2190	0.0307097
2202	0.0252157
2214	0.023314
2226	0.0232435
2238	0.0228209
2250	0.0223279
2262	0.0223279
2274	0.0221166
2286	0.0220462
2298	0.0212714
2310	0.021694
2322	0.0214827
2334	0.0225392
2346	0.0187357
2358	0.0178905
2370	0.0176087
2382	0.0187357
2394	0.0195809
2406	0.0191583
2418	0.0194401
2430	0.018947
2442	0.0187357
2454	0.0183835
2466	0.0181722
2478	0.0179609
2490	0.0175383
2502	0.0171157
2514	0.0172566
2526	0.016834
2538	0.0169748
2550	0.0165522
2562	0.0162001
2574	0.0157774
2586	0.0156366
2598	0.015707
2610	0.0150731
2622	0.0150027
2634	0.01458
2646	0.0144392
2658	0.0141574
2670	0.0138053
2682	0.0133826
2694	0.0135235
2706	0.0133826
2718	0.0131009
2730	0.0128896
2742	0.01296
2754	0.0121853
2766	0.0121148
2778	0.0126079
2790	0.0122557
2802	0.0126079
2814	0.012467
2826	0.0123966
2838	0.01296
2850	0.012467
2862	0.0123966
2874	0.0121148
2886	0.0122557
2898	0.0128896
2910	0.0131713
2922	0.0122557
2934	0.0128896
2946	0.0125374
2958	0.0125374
2970	0.0126783
2982	0.0122557
2994	0.0123261
3006	0.011974
3018	0.0120444
3030	0.0127487
3042	0.0126783
3054	0.0126079
3066	0.0126079
3078	0.0126079
3090	0.0126079
3102	0.0132418
3114	0.012467
3126	0.0128192
3138	0.01296
3150	0.0130305
3162	0.01296
3174	0.0131713
3186	0.0128192
3198	0.0143687
3210	0.0131713
3222	0.0131713
3234	0.0128192
3246	0.0125374
3258	0.01296
3270	0.0135235
3282	0.0128192
3294	0.0138757
3306	0.0126079
3318	0.0134531
3330	0.0133122
3342	0.0136644
3354	0.0128192
3366	0.0132418
3378	0.0121853
3390	0.0138053
3402	0.01296
3414	0.0134531
3426	0.0131009
3438	0.0136644
3450	0.0144392
3462	0.013594
3474	0.014087
3486	0.0132418
3498	0.0138053
3510	0.0138053
3522	0.0132418
3534	0.0150731
3546	0.0126079
3558	0.0123261
3570	0.0144392
3582	0.0140166
3594	0.0135235
3606	0.0139461
3618	0.013594
3630	0.0143687
3642	0.0161296
3654	0.0131713
3666	0.0153548
3678	0.0136644
3690	0.0123261
3702	0.0138757
3714	0.014087
3726	0.01458
3738	0.011974
3750	0.0132418
3762	0.0143687
3774	0.0136644
3786	0.0143687
3798	0.0123966
3810	0.0159183
3822	0.0116218
3834	0.0128896
3846	0.0152844
3858	0.012467
3870	0.0145096
3882	0.0134531
3894	0.0159887
3906	0.0128192
3918	0.0127487
3930	0.0154253
3942	0.0197922
3954	0.0131713
3966	0.0147913
