Infrared Spectrum: CARBON DISULFIDE
Formula: C S2
CAS: 75-15-0
State: LIQUID (NEAT)
Class: COBLENTZ III
Instrument: DOW KBr FOREPRISM-GRATING
Instrument parameters: BLAZED AT 3.5, 12.0, 20.0 MICRON, CHANGED AT 5.0, 7.5, 14.9 MICRON
Sampling: TRANSMISSION
Path length: 0.011 CM
Resolution: 4
Origin: DOW CHEMICAL COMPANY
1/CM	TRANSMITTANCE
433.895	1.04
442.586	1.042
451.277	1.042
459.968	1.047
468.659	1.05
477.35	1.055
486.041	1.061
494.732	1.07
503.423	1.073
512.114	1.074
520.804	1.074
529.495	1.08
538.186	1.085
546.877	1.083
555.568	1.084
564.259	1.083
572.95	1.084
581.641	1.085
590.332	1.081
599.023	1.079
607.714	1.079
616.405	1.074
625.096	1.066
633.787	1.053
642.478	1.034
651.169	1.02
659.86	1.04
668.551	1.057
677.241	1.068
685.932	1.074
694.623	1.077
703.314	1.077
712.005	1.077
720.696	1.081
729.387	1.084
738.078	1.087
746.769	1.089
755.46	1.087
764.151	1.085
772.842	1.08
781.533	1.072
790.224	1.074
798.915	1.077
807.606	1.077
816.297	1.076
824.988	1.072
833.678	1.049
842.369	1.001
851.06	0.896
859.751	0.886
868.442	0.927
877.133	0.972
885.824	1.023
894.515	1.059
903.206	1.083
911.897	1.087
920.588	1.095
929.279	1.096
937.97	1.096
946.661	1.096
955.352	1.095
964.043	1.095
972.734	1.095
981.425	1.096
990.116	1.098
998.806	1.095
1007.5	1.098
1016.19	1.098
1024.88	1.092
1033.57	1.091
1042.26	1.091
1050.95	1.089
1059.64	1.091
1068.33	1.085
1077.02	1.085
1085.72	1.089
1094.41	1.092
1103.1	1.098
1111.79	1.107
1120.48	1.104
1129.17	1.099
1137.86	1.099
1146.55	1.104
1155.24	1.107
1163.93	1.106
1172.63	1.099
1181.32	1.102
1190.01	1.11
1198.7	1.111
1207.39	1.114
1216.08	1.115
1224.77	1.115
1233.46	1.107
1242.15	1.092
1250.84	1.092
1259.53	1.094
1268.23	1.092
1276.92	1.092
1285.61	1.087
1294.3	1.085
1302.99	1.08
1311.68	1.079
1320.37	1.079
1329.06	1.079
1337.75	1.066
1346.44	1.055
1355.14	1.046
1363.83	1.031
1372.52	1.006
1381.21	0.972
1389.9	0.911
1398.59	0.81
1407.28	0.681
1415.97	0.508
1424.66	0.303
1433.35	0.104
1442.04	0.031
1450.74	0.006
1459.43	0.005
1468.12	0.005
1476.81	0.005
1485.5	0.005
1494.19	0.005
1502.88	0.005
1511.57	0.005
1520.26	0.005
1528.95	0.006
1537.65	0.006
1546.34	0.006
1555.03	0.008
1563.72	0.008
1572.41	0.014
1581.1	0.049
1589.79	0.193
1598.48	0.392
1607.17	0.591
1615.86	0.756
1624.55	0.854
1633.25	0.923
1641.94	0.964
1650.63	1.004
1659.32	1.021
1668.01	1.038
1676.7	1.05
1685.39	1.053
1694.08	1.062
1702.77	1.054
1711.46	1.062
1720.15	1.072
1728.85	1.07
1737.54	1.074
1746.23	1.069
1754.92	1.069
1763.61	1.074
1772.3	1.076
1780.99	1.074
1789.68	1.068
1798.37	1.073
1807.06	1.074
1815.76	1.074
1824.45	1.073
1833.14	1.073
1841.83	1.066
1850.52	1.072
1859.21	1.072
1867.9	1.069
1876.59	1.069
1885.28	1.068
1893.97	1.066
1902.66	1.065
1911.36	1.065
1920.05	1.065
1928.74	1.066
1937.43	1.066
1946.12	1.072
1954.81	1.064
1963.5	1.069
1972.19	1.069
1980.88	1.069
1989.57	1.07
1998.27	1.057
2006.96	1.055
2015.65	1.0548
2024.34	1.053
2033.03	1.051
2041.72	1.05
2050.41	1.0363
2059.1	1.035
2067.79	1.0256
2076.48	1.0172
2085.17	1.0003
2093.87	0.9615
2102.56	0.8618
2111.25	0.782
2119.94	0.6185
2128.63	0.3527
2137.32	0.0966
2146.01	0.0058
2154.7	0.004
2163.39	0.0058
2172.08	0.0152
2180.78	0.0362
2189.47	0.1222
2198.16	0.2659
2206.85	0.5719
2215.54	0.8286
2224.23	0.9057
2232.92	0.9527
2241.61	0.9852
2250.3	0.9894
2258.99	0.9813
2267.68	0.9523
2276.38	0.8604
2285.07	0.6853
2293.76	0.3326
2302.45	0.3479
2311.14	0.5653
2319.83	0.7068
2328.52	0.7944
2337.21	0.8773
2345.9	0.9645
2354.59	1.0025
2363.28	1.0104
2371.98	1.0385
2380.67	1.0429
2389.36	1.046
2398.05	1.046
2406.74	1.044
2415.43	1.044
2424.12	1.046
2432.81	1.044
2441.5	1.042
2450.19	1.043
2458.89	1.042
2467.58	1.0427
2476.27	1.042
2484.96	1.04
2493.65	1.04
2502.34	1.04
2511.03	1.0415
2519.72	1.04
2528.41	1.0393
2537.1	1.039
2545.79	1.039
2554.49	1.039
2563.18	1.039
2571.87	1.038
2580.56	1.038
2589.25	1.0377
2597.94	1.038
2606.63	1.0377
2615.32	1.036
2624.01	1.036
2632.7	1.036
2641.4	1.0378
2650.09	1.035
2658.78	1.035
2667.47	1.036
2676.16	1.035
2684.85	1.035
2693.54	1.034
2702.23	1.034
2710.92	1.032
2719.61	1.031
2728.3	1.029
2737	1.027
2745.69	1.0241
2754.38	1.0142
2763.07	1.008
2771.76	0.9946
2780.45	0.976
2789.14	0.9656
2797.83	0.9196
2806.52	0.9596
2815.21	0.9972
2823.91	1.0088
2832.6	1.017
2841.29	1.0186
2849.98	1.023
2858.67	1.024
2867.36	1.024
2876.05	1.023
2884.74	1.021
2893.43	1.02
2902.12	1.0106
2910.81	1.0019
2919.51	0.9823
2928.2	0.9964
2936.89	1.0127
2945.58	1.0153
2954.27	1.017
2962.96	1.019
2971.65	1.021
2980.34	1.023
2989.03	1.0194
2997.72	1.019
3006.41	1.0196
3015.11	1.021
3023.8	1.0195
3032.49	1.021
3041.18	1.019
3049.87	1.019
3058.56	1.018
3067.25	1.017
3075.94	1.016
3084.63	1.014
3093.32	1.016
3102.02	1.019
3110.71	1.019
3119.4	1.0178
3128.09	1.017
3136.78	1.0166
3145.47	1.017
3154.16	1.017
3162.85	1.016
3171.54	1.016
3180.23	1.017
3188.92	1.0154
3197.62	1.013
3206.31	1.014
3215	1.014
3223.69	1.014
3232.38	1.014
3241.07	1.014
3249.76	1.0136
3258.45	1.0116
3267.14	1.01
3275.83	1.009
3284.53	1.008
3293.22	1.008
3301.91	1.008
3310.6	1.006
3319.29	1.005
3327.98	1.004
3336.67	1.002
3345.36	1.001
3354.05	1
3362.74	1
3371.43	1
3380.13	1
3388.82	0.998
3397.51	0.998
3406.2	0.998
3414.89	0.998
3423.58	0.998
3432.27	0.998
3440.96	1
3449.65	1.001
3458.34	1.001
3467.03	1.001
3475.73	1.001
3484.42	1.001
3493.11	1.001
3501.8	1.001
3510.49	1.002
3519.18	1.004
3527.87	1.0048
3536.56	1.005
3545.25	1.005
3553.94	1.004
3562.64	1.004
3571.33	1.002
3580.02	1.001
3588.71	1.001
3597.4	1.001
3606.09	1.0003
3614.78	1
3623.47	1.0007
3632.16	1.001
3640.85	1.001
3649.54	1.001
3658.24	1.001
3666.93	1.001
3675.62	1
3684.31	1
3693	1
3701.69	1
3710.38	1
3719.07	1.001
3727.76	1.001
3736.45	1.001
3745.15	1
3753.84	0.998
3762.53	0.998
3771.22	0.998
3779.91	0.9975
3788.6	0.9946
3797.29	0.991
