Infrared Spectrum: CARBON DISULFIDE
Formula: C S2
CAS: 75-15-0
State: LIQUID (NEAT)
Class: COBLENTZ III
Instrument: DOW KBr FOREPRISM-GRATING
Instrument parameters: BLAZED AT 3.5, 12.0, 20.0 MICRON, CHANGED AT 5.0, 7.5, 14.9 MICRON
Sampling: TRANSMISSION
Path length: 0.104 CM
Resolution: 4
Origin: DOW CHEMICAL COMPANY
1/CM	TRANSMITTANCE
453.966	0.767
462.652	0.81
471.337	0.838
480.023	0.879
488.708	0.906
497.394	0.934
506.079	0.957
514.765	0.972
523.451	0.983
532.136	0.986
540.822	0.986
549.507	0.983
558.193	0.979
566.879	0.975
575.564	0.968
584.25	0.957
592.935	0.944
601.621	0.928
610.306	0.9
618.992	0.862
627.678	0.807
636.363	0.713
645.049	0.576
653.734	0.489
662.42	0.633
671.105	0.727
679.791	0.773
688.477	0.788
697.162	0.795
705.848	0.8
714.533	0.808
723.219	0.831
731.905	0.854
740.59	0.873
749.276	0.89
757.961	0.896
766.647	0.894
775.332	0.872
784.018	0.822
792.704	0.815
801.389	0.824
810.075	0.804
818.76	0.831
827.446	0.786
836.131	0.651
844.817	0.354
853.503	0.082
862.188	0.119
870.874	0.206
879.559	0.312
888.245	0.512
896.931	0.762
905.616	0.872
914.302	0.924
922.987	0.949
931.673	0.967
940.358	0.976
949.044	0.979
957.73	0.982
966.415	0.983
975.101	0.983
983.786	0.982
992.472	0.979
1001.16	0.978
1009.84	0.971
1018.53	0.963
1027.21	0.949
1035.9	0.941
1044.59	0.949
1053.27	0.96
1061.96	0.97
1070.64	0.976
1079.33	0.979
1088.01	0.981
1096.7	0.985
1105.38	0.986
1114.07	0.987
1122.76	0.993
1131.44	0.993
1140.13	0.989
1148.81	0.989
1157.5	0.994
1166.18	0.99
1174.87	0.989
1183.55	0.994
1192.24	0.993
1200.93	0.993
1209.61	0.995
1218.3	1
1226.98	1
1235.67	0.998
1244.35	0.997
1253.04	0.987
1261.72	0.986
1270.41	0.982
1279.1	0.982
1287.78	0.975
1296.47	0.964
1305.15	0.956
1313.84	0.947
1322.52	0.933
1331.21	0.914
1339.9	0.854
1348.58	0.808
1357.27	0.734
1365.95	0.641
1374.64	0.499
1383.32	0.336
1392.01	0.134
1400.69	0.037
1409.38	0.006
1418.07	0
1426.75	0
1435.44	0
1444.12	0
1452.81	0
1461.49	0.001
1470.18	0
1478.86	0
1487.55	0.001
1496.24	0.001
1504.92	0.002
1513.61	0.004
1522.29	0.004
1530.98	0.005
1539.66	0.006
1548.35	0.005
1557.03	0.005
1565.72	0.005
1574.41	0.004
1583.09	0.004
1591.78	0.004
1600.46	0.006
1609.15	0.008
1617.83	0.028
1626.52	0.105
1635.2	0.251
1643.89	0.404
1652.58	0.546
1661.26	0.641
1669.95	0.729
1678.63	0.791
1687.32	0.833
1696	0.871
1704.69	0.892
1713.38	0.917
1722.06	0.937
1730.75	0.945
1739.43	0.953
1748.12	0.962
1756.8	0.964
1765.49	0.971
1774.17	0.974
1782.86	0.975
1791.55	0.974
1800.23	0.976
1808.92	0.975
1817.6	0.974
1826.29	0.972
1834.97	0.97
1843.66	0.97
1852.34	0.964
1861.03	0.957
1869.72	0.953
1878.4	0.945
1887.09	0.934
1895.77	0.93
1904.46	0.93
1913.14	0.933
1921.83	0.941
1930.51	0.951
1939.2	0.955
1947.89	0.959
1956.57	0.951
1965.26	0.975
1973.94	0.979
1982.63	0.979
1991.31	0.979
2000	0.982
2008.68	0.978
2017.37	0.968
2026.06	0.9531
2034.74	0.9441
2043.43	0.9321
2052.11	0.896
2060.8	0.8429
2069.48	0.7709
2078.17	0.6726
2086.85	0.4632
2095.54	0.3331
2104.23	0.0908
2112.91	0.0046
2121.6	0
2130.28	0
2138.97	0
2147.65	0
2156.34	0
2165.03	0
2173.71	0
2182.4	0
2191.08	0
2199.77	0.0008
2208.45	0.0219
2217.14	0.1543
2225.82	0.2612
2234.51	0.4335
2243.2	0.5283
2251.88	0.5281
2260.57	0.4482
2269.25	0.2704
2277.94	0.0554
2286.62	0
2295.31	0
2303.99	0.002
2312.68	0.0126
2321.37	0.0386
2330.05	0.157
2338.74	0.3034
2347.42	0.52
2356.11	0.7772
2364.79	0.8517
2373.48	0.8952
2382.16	0.9233
2390.85	0.9501
2399.54	0.97
2408.22	0.9755
2416.91	0.981
2425.59	0.986
2434.28	0.987
2442.96	0.989
2451.65	0.989
2460.33	0.99
2469.02	0.99
2477.71	0.99
2486.39	0.9904
2495.08	0.99
2503.76	0.989
2512.45	0.99
2521.13	0.99
2529.82	0.99
2538.51	0.99
2547.19	0.989
2555.88	0.989
2564.56	0.99
2573.25	0.989
2581.93	0.989
2590.62	0.989
2599.3	0.99
2607.99	0.9892
2616.68	0.989
2625.36	0.987
2634.05	0.987
2642.73	0.987
2651.42	0.989
2660.1	0.987
2668.79	0.987
2677.47	0.987
2686.16	0.986
2694.85	0.985
2703.53	0.982
2712.22	0.978
2720.9	0.9755
2729.59	0.9617
2738.27	0.9473
2746.96	0.9204
2755.64	0.8616
2764.33	0.7928
2773.02	0.7337
2781.7	0.561
2790.39	0.5405
2799.07	0.4035
2807.76	0.4244
2816.44	0.6559
2825.13	0.7739
2833.81	0.8337
2842.5	0.8876
2851.19	0.9313
2859.87	0.9588
2868.56	0.97
2877.24	0.971
2885.93	0.9642
2894.61	0.9532
2903.3	0.9105
2911.98	0.8731
2920.67	0.7548
2929.36	0.7552
2938.04	0.8664
2946.73	0.9165
2955.41	0.94
2964.1	0.9558
2972.78	0.9732
2981.47	0.9822
2990.16	0.986
2998.84	0.989
3007.53	0.989
3016.21	0.989
3024.9	0.989
3033.58	0.989
3042.27	0.991
3050.95	0.993
3059.64	0.9933
3068.33	0.991
3077.01	0.9917
3085.7	0.9863
3094.38	0.985
3103.07	0.986
3111.75	0.9935
3120.44	1
3129.12	1.0032
3137.81	1.005
3146.5	1.006
3155.18	1.008
3163.87	1.009
3172.55	1.0096
3181.24	1.01
3189.92	1.012
3198.61	1.0125
3207.29	1.012
3215.98	1.0125
3224.67	1.013
3233.35	1.013
3242.04	1.0135
3250.72	1.014
3259.41	1.013
3268.09	1.0149
3276.78	1.0174
3285.46	1.018
3294.15	1.018
3302.84	1.018
3311.52	1.018
3320.21	1.02
3328.89	1.02
3337.58	1.018
3346.26	1.018
3354.95	1.021
3363.64	1.021
3372.32	1.021
3381.01	1.021
3389.69	1.021
3398.38	1.02
3407.06	1.02
3415.75	1.0155
3424.43	1.013
3433.12	1.0097
3441.81	1.0008
3450.49	1.001
3459.18	1.005
3467.86	1.006
3476.55	1.0058
3485.23	1.005
3493.92	1.004
3502.6	1.0018
3511.29	1.001
3519.98	0.9997
3528.66	0.998
3537.35	0.997
3546.03	0.993
3554.72	0.9909
3563.4	0.989
3572.09	0.989
3580.77	0.989
3589.46	0.987
3598.15	0.983
3606.83	0.981
3615.52	0.985
3624.2	0.989
3632.89	0.989
3641.57	0.989
3650.26	0.989
3658.94	0.987
3667.63	0.986
3676.32	0.986
3685	0.985
3693.69	0.983
3702.37	0.986
3711.06	0.9888
3719.74	0.989
3728.43	0.9888
3737.11	0.9909
3745.8	0.993
3754.49	0.991
3763.17	0.989
3771.86	0.99
3780.54	0.99
