Infrared Spectrum: Carbon disulfide
Formula: C S2
CAS: 75-15-0
State: GAS (100 mmHg, N2 ADDED, TOTAL PRESSURE 600 mmHg)
Class: COBLENTZ
Instrument: DOW KBr FOREPRISM-GRATING
Instrument parameters: GRATING CHANGED AT 5.0, 7.5, 15.0 MICRON
Sampling: TRANSMISSION
Path length: 5 CM
Resolution: 2
Origin: DOW CHEMICAL COMPANY
1/CM	TRANSMITTANCE
461	0.8294
470	0.8302
479	0.8302
488	0.8368
497	0.8504
506	0.8499
515	0.8501
524	0.8531
533	0.8575
542	0.8578
551	0.8604
560	0.863
569	0.8651
578	0.8668
587	0.8681
596	0.8693
605	0.8707
614	0.8704
623	0.8698
632	0.8695
641	0.8692
650	0.8692
659	0.8706
668	0.875
677	0.8934
686	0.8904
695	0.8859
704	0.8798
713	0.8695
722	0.8525
731	0.8324
740	0.8257
749	0.8284
758	0.8444
767	0.8496
776	0.871
785	0.8816
794	0.8882
803	0.8923
812	0.8953
821	0.8956
830	0.8953
839	0.896
848	0.8955
857	0.8928
866	0.8731
875	0.8874
884	0.8608
893	0.8939
902	0.8947
911	0.8884
920	0.8905
929	0.9035
938	0.9077
947	0.9077
956	0.9082
965	0.908
974	0.9077
983	0.9078
992	0.9078
1001	0.9066
1010	0.9041
1019	0.9027
1028	0.9062
1037	0.905
1046	0.9031
1055	0.9001
1064	0.8963
1073	0.8918
1082	0.8938
1091	0.8971
1100	0.8986
1109	0.9002
1118	0.9045
1127	0.9049
1136	0.9042
1145	0.9005
1154	0.9028
1163	0.9055
1172	0.9068
1181	0.9009
1190	0.9087
1199	0.9093
1208	0.9099
1217	0.9105
1226	0.9112
1235	0.9108
1244	0.9002
1253	0.8932
1262	0.8915
1271	0.8921
1280	0.892
1289	0.892
1298	0.8927
1307	0.8927
1316	0.8913
1325	0.8902
1334	0.8899
1343	0.8944
1352	0.899
1361	0.906
1370	0.8986
1379	0.8871
1388	0.8804
1397	0.8798
1406	0.8834
1415	0.8863
1424	0.8862
1433	0.8873
1442	0.8838
1451	0.8774
1460	0.843
1469	0.7357
1478	0.5384
1487	0.5846
1496	0.3587
1505	0.0272
1514	0.0011
1523	0.0011
1532	0.0011
1541	0.001
1550	0.001
1559	0.8732
1568	0.8862
1577	0.8886
1586	0.8828
1595	0.8828
1604	0.882
1613	0.8801
1622	0.8783
1631	0.8775
1640	0.8777
1649	0.8735
1658	0.8764
1667	0.8794
1676	0.882
1685	0.888
1694	0.8843
1703	0.8925
1712	0.887
1721	0.8928
1730	0.8878
1739	0.8921
1748	0.887
1757	0.8846
1766	0.8821
1775	0.8838
1784	0.879
1793	0.8828
1802	0.8813
1811	0.8778
1820	0.8778
1829	0.8784
1838	0.8786
1847	0.8789
1856	0.8775
1865	0.8766
1874	0.8768
1883	0.8771
1892	0.877
1901	0.8763
1910	0.8759
1919	0.8767
1928	0.8771
1937	0.8771
1946	0.8775
1955	0.8778
1964	0.8786
1973	0.8782
1982	0.8771
1991	0.877
2000	0.8778
2009	0.8783
2018	0.8785
2027	0.8785
2036	0.8783
2045	0.8775
2054	0.877
2063	0.8763
2072	0.876
2081	0.8757
2090	0.8747
2099	0.8736
2108	0.8721
2117	0.8701
2126	0.8658
2135	0.8565
2144	0.8458
2153	0.8121
2162	0.6617
2171	0.4699
2180	0.398
2189	0.4576
2198	0.2394
2207	0.8758
2216	0.879
2225	0.8783
2234	0.8773
2243	0.8764
2252	0.8763
2261	0.8763
2270	0.8768
2279	0.8773
2288	0.8766
2297	0.872
2306	0.8599
2315	0.8133
2324	0.7491
2333	0.794
2342	0.7665
2351	0.8908
2360	0.8928
2369	0.8901
2378	0.8851
2387	0.8823
2396	0.8815
2405	0.8811
2414	0.8807
2423	0.8803
2432	0.8803
2441	0.8804
2450	0.8808
2459	0.8811
2468	0.8814
2477	0.8813
2486	0.8812
2495	0.8809
2504	0.8804
2513	0.8798
2522	0.8795
2531	0.8791
2540	0.8793
2549	0.8796
2558	0.8799
2567	0.8801
2576	0.8799
2585	0.8795
2594	0.8794
2603	0.8794
2612	0.8793
2621	0.8793
2630	0.8794
2639	0.8796
2648	0.8798
2657	0.8799
2666	0.88
2675	0.8799
2684	0.8797
2693	0.8794
2702	0.879
2711	0.8784
2720	0.878
2729	0.8775
2738	0.8771
2747	0.8768
2756	0.8766
2765	0.8762
2774	0.8758
2783	0.8752
2792	0.8739
2801	0.872
2810	0.8706
2819	0.8694
2828	0.869
2837	0.8725
2846	0.8845
2855	0.8844
2864	0.8836
2873	0.883
2882	0.8836
2891	0.8851
2900	0.8884
2909	0.8923
2918	0.8884
2927	0.8791
2936	0.8766
2945	0.8765
2954	0.8755
2963	0.871
2972	0.8691
2981	0.8681
2990	0.8673
2999	0.8663
3008	0.8657
3017	0.8655
3026	0.8653
3035	0.8651
3044	0.8648
3053	0.8643
3062	0.864
3071	0.8638
3080	0.8639
3089	0.8641
3098	0.8644
3107	0.8645
3116	0.8621
3125	0.8601
3134	0.8595
3143	0.8594
3152	0.8592
3161	0.8588
3170	0.8583
3179	0.8582
3188	0.8585
3197	0.8594
3206	0.86
3215	0.8604
3224	0.8602
3233	0.8597
3242	0.8593
3251	0.8587
3260	0.8583
3269	0.8577
3278	0.8575
3287	0.8575
3296	0.8574
3305	0.8573
3314	0.857
3323	0.8566
3332	0.8563
3341	0.8561
3350	0.856
3359	0.8558
3368	0.8558
3377	0.8558
3386	0.856
3395	0.8575
3404	0.86
3413	0.8624
3422	0.8638
3431	0.865
3440	0.8663
3449	0.8673
3458	0.8683
3467	0.8691
3476	0.8699
3485	0.8707
3494	0.8715
3503	0.8721
3512	0.8728
3521	0.8734
3530	0.8739
3539	0.8743
3548	0.8747
3557	0.8745
3566	0.8744
3575	0.8745
3584	0.8747
3593	0.8747
3602	0.8743
3611	0.8735
3620	0.8732
3629	0.8808
3638	0.8749
3647	0.8735
3656	0.8765
3665	0.8757
3674	0.8701
3683	0.8693
3692	0.877
3701	0.8809
3710	0.882
3719	0.8827
3728	0.8827
3737	0.8788
3746	0.8752
3755	0.8738
3764	0.8737
3773	0.8732
3782	0.8728
3791	0.8725
