Infrared Spectrum: DIBROMO FLUOROACETONITRILE
Formula: C2 Br2 F N
CAS: 6698-74-4
State: SOLUTION (10% CCl4 FOR 5000-1330, 10% CS2 FOR 1330-625 CM^-^1)
Class: COBLENTZ
Instrument: Not specified, most likely a prism, grating, or hybrid spectrometer.
Sampling: TRANSMISSION
Path length: 0.0118 CM, 0.0118 CM
Resolution: 4
Origin: DOW CHEMICAL COMPANY
MICROMETERS	TRANSMITTANCE
2.075	0.879
2.11608	0.88
2.15716	0.88
2.19823	0.88
2.23931	0.882
2.28039	0.884
2.32147	0.884
2.36254	0.889
2.40362	0.887
2.4447	0.891
2.48578	0.892
2.52685	0.892
2.56793	0.892
2.60901	0.891
2.65009	0.894
2.69116	0.891
2.73224	0.886
2.77332	0.88
2.8144	0.882
2.85547	0.882
2.89655	0.882
2.93763	0.889
2.97871	0.887
3.01978	0.894
3.06086	0.894
3.10194	0.894
3.14302	0.894
3.18409	0.894
3.22517	0.894
3.26625	0.892
3.30733	0.889
3.3484	0.872
3.38948	0.88
3.43056	0.884
3.47164	0.891
3.51271	0.899
3.55379	0.904
3.59487	0.904
3.63595	0.906
3.67702	0.908
3.7181	0.909
3.75918	0.909
3.80026	0.911
3.84134	0.909
3.88241	0.908
3.92349	0.911
3.96457	0.909
4.00565	0.909
4.04672	0.913
4.0878	0.911
4.12888	0.911
4.16996	0.913
4.21103	0.909
4.25211	0.903
4.29319	0.896
4.33427	0.892
4.37534	0.904
4.41642	0.911
4.4575	0.914
4.49858	0.92
4.53965	0.921
4.58073	0.921
4.62181	0.923
4.66289	0.921
4.70396	0.92
4.74504	0.897
4.78612	0.892
4.8272	0.911
4.86827	0.916
4.90935	0.921
4.95043	0.92
4.99151	0.916
5.03258	0.921
5.07366	0.923
5.11474	0.923
5.15582	0.926
5.19689	0.925
5.23797	0.923
5.27905	0.923
5.32013	0.923
5.36121	0.92
5.40228	0.923
5.44336	0.925
5.48444	0.925
5.52552	0.926
5.56659	0.926
5.60767	0.928
5.64875	0.923
5.68983	0.914
5.7309	0.903
5.77198	0.909
5.81306	0.92
5.85414	0.923
5.89521	0.916
5.93629	0.911
5.97737	0.913
6.01845	0.911
6.05952	0.889
6.1006	0.858
6.14168	0.875
6.18276	0.841
6.22383	0.77
6.26491	0.676
6.30599	0.632
6.34707	0.596
6.38814	0.551
6.42922	0.481
6.4703	0.505
6.51138	0.593
6.55245	0.656
6.59353	0.719
6.63461	0.785
6.67569	0.841
6.71676	0.867
6.75784	0.879
6.79892	0.894
6.84	0.901
6.88107	0.904
6.92215	0.908
6.96323	0.911
7.00431	0.92
7.04539	0.92
7.08646	0.921
7.12754	0.913
7.16862	0.911
7.2097	0.909
7.25077	0.906
7.29185	0.913
7.33293	0.923
7.37401	0.928
7.41508	0.926
7.45616	0.926
7.49724	0.926
7.53832	0.925
7.57939	0.928
7.62047	0.921
7.66155	0.914
7.70263	0.901
7.7437	0.874
7.78478	0.884
7.82586	0.901
7.86694	0.908
7.90801	0.903
7.94909	0.913
7.99017	0.923
8.03125	0.928
8.07232	0.928
8.1134	0.931
8.15448	0.931
8.19556	0.931
8.23663	0.926
8.27771	0.925
8.31879	0.921
8.35987	0.908
8.40094	0.906
8.44202	0.909
8.4831	0.906
8.52418	0.897
8.56525	0.88
8.60633	0.903
8.64741	0.909
8.68849	0.909
8.72957	0.899
8.77064	0.891
8.81172	0.896
8.8528	0.899
8.89388	0.897
8.93495	0.887
8.97603	0.887
9.01711	0.879
9.05819	0.86
9.09926	0.829
9.14034	0.811
9.18142	0.806
9.2225	0.797
9.26357	0.78
9.30465	0.738
9.34573	0.61
9.38681	0.413
9.42788	0.192
9.46896	0.034
9.51004	0.054
9.55112	0.146
9.59219	0.314
9.63327	0.493
9.67435	0.649
9.71543	0.732
9.7565	0.789
9.79758	0.835
9.83866	0.86
9.87974	0.874
9.92081	0.882
9.96189	0.889
10.003	0.899
10.044	0.904
10.0851	0.909
10.1262	0.916
10.1673	0.921
10.2084	0.928
10.2494	0.926
10.2905	0.925
10.3316	0.921
10.3727	0.918
10.4137	0.903
10.4548	0.897
10.4959	0.896
10.537	0.906
10.5781	0.908
10.6191	0.909
10.6602	0.908
10.7013	0.906
10.7424	0.906
10.7834	0.904
10.8245	0.901
10.8656	0.896
10.9067	0.894
10.9478	0.892
10.9888	0.889
11.0299	0.886
11.071	0.882
11.1121	0.879
11.1531	0.874
11.1942	0.865
11.2353	0.848
11.2764	0.828
11.3175	0.818
11.3585	0.801
11.3996	0.79
11.4407	0.777
11.4818	0.76
11.5228	0.748
11.5639	0.729
11.605	0.709
11.6461	0.69
11.6871	0.685
11.7282	0.698
11.7693	0.724
11.8104	0.763
11.8515	0.79
11.8925	0.823
11.9336	0.836
11.9747	0.846
12.0158	0.855
12.0568	0.86
12.0979	0.862
12.139	0.862
12.1801	0.855
12.2212	0.846
12.2622	0.831
12.3033	0.812
12.3444	0.802
12.3855	0.804
12.4265	0.821
12.4676	0.826
12.5087	0.823
12.5498	0.804
12.5909	0.79
12.6319	0.784
12.673	0.784
12.7141	0.792
12.7552	0.804
12.7962	0.811
12.8373	0.812
12.8784	0.806
12.9195	0.801
12.9606	0.789
13.0016	0.778
13.0427	0.767
13.0838	0.748
13.1249	0.722
13.1659	0.681
13.207	0.632
13.2481	0.573
13.2892	0.477
13.3303	0.375
13.3713	0.219
13.4124	0.091
13.4535	0.015
13.4946	0
13.5356	0
13.5767	0
13.6178	0
13.6589	0
13.7	0.073
13.741	0.183
13.7821	0.329
13.8232	0.45
13.8643	0.51
13.9053	0.547
13.9464	0.559
13.9875	0.566
14.0286	0.576
14.0696	0.573
14.1107	0.544
14.1518	0.467
14.1929	0.377
14.234	0.28
14.275	0.238
14.3161	0.25
14.3572	0.295
14.3983	0.352
14.4393	0.43
14.4804	0.486
14.5215	0.537
14.5626	0.566
14.6037	0.586
14.6447	0.596
14.6858	0.598
14.7269	0.598
14.768	0.596
14.809	0.588
14.8501	0.585
14.8912	0.576
14.9323	0.569
14.9734	0.566
15.0144	0.561
15.0555	0.554
15.0966	0.545
15.1377	0.537
15.1787	0.527
15.2198	0.515
15.2609	0.506
15.302	0.498
15.3431	0.488
15.3841	0.479
15.4252	0.472
15.4663	0.467
15.5074	0.459
15.5484	0.454
15.5895	0.447
15.6306	0.438
15.6717	0.433
15.7128	0.428
15.7538	0.423
15.7949	0.418
15.836	0.413
15.8771	0.413
