Infrared Spectrum: 4-Penten-2-ol
Formula: C 5 H 10 O
CAS: 625-31-0
State: gas
Instrument: HP-GC/MS/IRD
Origin: NIST Mass Spectrometry Data Center
1/CM	ABSORBANCE
550	0.0007328
562	0.000512
574	0.0004704
586	0.00048
598	0.0008656
610	0.001104
622	0.0015792
634	0.0015776
646	0.0010624
658	0.0007376
670	0.00068
682	0.0005888
694	0.0003872
706	0.0003008
718	0.0001776
730	7.36e-05
742	9.76e-05
754	6.08e-05
766	0.0001408
778	0.0002832
790	0.00048
802	0.0008304
814	0.0012272
826	0.0018448
838	0.0022608
850	0.0022656
862	0.0019264
874	0.0021648
886	0.0033936
898	0.0057952
910	0.0091632
922	0.0110224
934	0.009432
946	0.0065552
958	0.0051552
970	0.004888
982	0.005616
994	0.006736
1006	0.0073952
1018	0.0072448
1030	0.0071472
1042	0.0073728
1054	0.007696
1066	0.0081776
1078	0.0087008
1090	0.009008
1102	0.0089552
1114	0.0082464
1126	0.0074704
1138	0.0064448
1150	0.0048896
1162	0.0033824
1174	0.00256
1186	0.0024496
1198	0.003056
1210	0.004
1222	0.0048016
1234	0.005336
1246	0.0057456
1258	0.0056512
1270	0.0048576
1282	0.0038128
1294	0.0030864
1306	0.0026496
1318	0.0025664
1330	0.0029728
1342	0.004008
1354	0.0053632
1366	0.0065664
1378	0.0075888
1390	0.0073232
1402	0.0054896
1414	0.0040304
1426	0.0037088
1438	0.0038048
1450	0.0035712
1462	0.0025632
1474	0.0016448
1486	0.0009552
1498	0.0005616
1510	0.0003632
1522	0.0003632
1534	0.0003456
1546	0.0003104
1558	0.0002512
1570	0.0002096
1582	0.0002416
1594	0.0003024
1606	0.0005568
1618	0.0011584
1630	0.0024576
1642	0.0029376
1654	0.002168
1666	0.0006464
1678	0.0002816
1690	0.0001664
1702	0.0001088
1714	5.44e-05
1726	9.92e-05
1738	8.32e-05
1750	7.36e-05
1762	5.12e-05
1774	6.24e-05
1786	9.44e-05
1798	0.000136
1810	0.0002176
1822	0.0005392
1834	0.0008576
1846	0.0008992
1858	0.0005664
1870	0.0002624
1882	0.0001248
1894	8.8e-05
1906	6.08e-05
1918	6.4e-05
1930	6.08e-05
1942	8.48e-05
1954	7.84e-05
1966	0.000152
1978	0.0001488
1990	0.0001248
2002	6.88e-05
2014	6.56e-05
2026	7.2e-05
2038	5.92e-05
2050	5.12e-05
2062	2.56e-05
2074	4.8e-05
2086	3.68e-05
2098	2.72e-05
2110	9.6e-06
2122	6.08e-05
2134	5.76e-05
2146	1.28e-05
2158	3.36e-05
2170	2.4e-05
2182	2.4e-05
2194	6.08e-05
2206	3.84e-05
2218	3.52e-05
2230	4.96e-05
2242	4.16e-05
2254	9.6e-06
2266	3.52e-05
2278	2.24e-05
2290	5.12e-05
2302	3.2e-05
2314	4.48e-05
2326	4.32e-05
2338	3.84e-05
2350	4.16e-05
2362	2.08e-05
2374	5.28e-05
2386	4.8e-05
2398	5.6e-05
2410	4.64e-05
2422	8e-05
2434	4.64e-05
2446	7.36e-05
2458	6.88e-05
2470	4.96e-05
2482	8.48e-05
2494	4.32e-05
2506	5.76e-05
2518	7.52e-05
2530	6.4e-05
2542	7.2e-05
2554	5.12e-05
2566	8.64e-05
2578	0.0001184
2590	0.000152
2602	0.0001904
2614	0.0002096
2626	0.00024
2638	0.0002736
2650	0.0003152
2662	0.0003392
2674	0.0003504
2686	0.0003488
2698	0.0003312
2710	0.0003104
2722	0.0003152
2734	0.000368
2746	0.000424
2758	0.0004592
2770	0.00052
2782	0.0005776
2794	0.0007344
2806	0.0009696
2818	0.0013824
2830	0.0019616
2842	0.002736
2854	0.0037952
2866	0.0054944
2878	0.0074416
2890	0.009176
2902	0.0108176
2914	0.0122576
2926	0.0128672
2938	0.011776
2950	0.0106416
2962	0.0118384
2974	0.015728
2986	0.014512
2998	0.0099408
3010	0.0051792
3022	0.003088
3034	0.0020032
3046	0.0018048
3058	0.00236
3070	0.0037872
3082	0.0052144
3094	0.004528
3106	0.0023696
3118	0.0009248
3130	0.0005568
3142	0.0004128
3154	0.000368
3166	0.0003056
3178	0.0002672
3190	0.0002528
3202	0.0002336
3214	0.0001632
3226	0.0001104
3238	9.6e-05
3250	6.72e-05
3262	6.56e-05
3274	0.00012
3286	8.8e-05
3298	0.0001024
3310	8.16e-05
3322	9.76e-05
3334	0.0001216
3346	0.0001136
3358	7.68e-05
3370	9.12e-05
3382	0.0001424
3394	0.0001904
3406	0.0001776
3418	0.0001312
3430	0.0002128
3442	0.0001824
3454	0.000232
3466	0.0001968
3478	0.000144
3490	0.0001568
3502	0.0001072
3514	0.0001408
3526	0.000176
3538	0.0002368
3550	0.0001488
3562	0.0001888
3574	0.0002048
3586	0.000288
3598	0.000624
3610	0.0013232
3622	0.0018672
3634	0.002456
3646	0.002992
3658	0.0027024
3670	0.0018608
3682	0.0008224
3694	0.0004368
3706	0.0002544
3718	0.0001872
3730	0.0001008
3742	0.000176
3754	0.0001344
3766	0.00012
3778	0.0001312
3790	0.0001344
3802	0.0001504
3814	0.0001696
3826	0.0001168
3838	0.000144
