Infrared Spectrum: 1-Chloro-2-methylbutane
Formula: C 5 H 11 Cl
CAS: 616-13-7
State: gas
Instrument: HP-GC/MS/IRD
Origin: NIST Mass Spectrometry Data Center
1/CM	ABSORBANCE
550	0.0001904
562	0.000238
574	0.00021
586	0.000196
598	0.0001372
610	8.4e-06
622	3.64e-05
634	0.0001232
646	0.0002184
658	0.0002912
670	0.0009828
682	0.0018004
694	0.0019404
706	0.0013468
718	0.0027748
730	0.0058268
742	0.0063112
754	0.0036316
766	0.0027468
778	0.0027692
790	0.0018984
802	0.0009632
814	0.0005992
826	0.0003052
838	0.0001204
850	0.0001316
862	0.00021
874	0.0003444
886	0.000546
898	0.0006272
910	0.001008
922	0.0012796
934	0.0009268
946	0.0003948
958	0.0005236
970	0.0009408
982	0.00098
994	0.0007588
1006	0.0006496
1018	0.000546
1030	0.0002912
1042	0.0001512
1054	3.64e-05
1066	3.92e-05
1078	0.0001708
1090	0.0002324
1102	0.0001428
1114	0.0001372
1126	0.0001596
1138	0.0003164
1150	0.0004144
1162	0.0005068
1174	0.0004564
1186	0.0004592
1198	0.0006832
1210	0.0007784
1222	0.000672
1234	0.0007532
1246	0.0013804
1258	0.0022204
1270	0.002814
1282	0.002926
1294	0.0029932
1306	0.0026068
1318	0.0018928
1330	0.0014056
1342	0.0013048
1354	0.001204
1366	0.001694
1378	0.002856
1390	0.0032536
1402	0.0018424
1414	0.0008988
1426	0.0011704
1438	0.002758
1450	0.0046872
1462	0.0053564
1474	0.0039788
1486	0.0020328
1498	0.000854
1510	0.0004284
1522	0.000266
1534	0.0002268
1546	0.000196
1558	0.0001904
1570	0.0001848
1582	0.0001568
1594	0.0001512
1606	0.0001372
1618	0.0001568
1630	0.0001736
1642	0.0001904
1654	0.0001764
1666	0.0001932
1678	0.0001708
1690	0.00014
1702	0.0001372
1714	0.000126
1726	0.0001036
1738	0.0001036
1750	5.88e-05
1762	7.28e-05
1774	7.84e-05
1786	5.32e-05
1798	3.36e-05
1810	6.72e-05
1822	4.2e-05
1834	4.76e-05
1846	3.92e-05
1858	6.44e-05
1870	5.6e-05
1882	3.92e-05
1894	4.76e-05
1906	3.64e-05
1918	4.76e-05
1930	1.4e-05
1942	0
1954	2.8e-05
1966	1.96e-05
1978	3.08e-05
1990	1.68e-05
2002	1.12e-05
2014	3.92e-05
2026	4.2e-05
2038	3.08e-05
2050	2.52e-05
2062	5.88e-05
2074	2.52e-05
2086	5.04e-05
2098	3.64e-05
2110	5.32e-05
2122	3.08e-05
2134	4.48e-05
2146	3.64e-05
2158	3.64e-05
2170	4.76e-05
2182	5.6e-05
2194	1.68e-05
2206	1.12e-05
2218	2.24e-05
2230	2.24e-05
2242	3.08e-05
2254	3.92e-05
2266	4.76e-05
2278	3.08e-05
2290	4.48e-05
2302	5.32e-05
2314	5.32e-05
2326	3.64e-05
2338	2.8e-05
2350	7.28e-05
2362	7.28e-05
2374	6.72e-05
2386	6.16e-05
2398	9.24e-05
2410	6.44e-05
2422	5.6e-05
2434	7.28e-05
2446	7.28e-05
2458	7.84e-05
2470	5.6e-05
2482	3.92e-05
2494	3.08e-05
2506	4.76e-05
2518	4.48e-05
2530	7.56e-05
2542	4.2e-05
2554	9.52e-05
2566	7.84e-05
2578	0.0001288
2590	0.000126
2602	0.000154
2614	0.0001568
2626	0.0001792
2638	0.0001484
2650	0.0001904
2662	0.0001708
2674	0.00021
2686	0.0002268
2698	0.00028
2710	0.0002996
2722	0.0003108
2734	0.000476
2746	0.0004984
2758	0.0005292
2770	0.0005012
2782	0.000518
2794	0.0006412
2806	0.0008064
2818	0.0010164
2830	0.0013888
2842	0.0021336
2854	0.003906
2866	0.0070084
2878	0.0099036
2890	0.0102284
2902	0.0097216
2914	0.0109816
2926	0.0138824
2938	0.0167244
2950	0.0194068
2962	0.0248332
2974	0.0277368
2986	0.0203756
2998	0.0097664
3010	0.0042
3022	0.0020412
3034	0.0013664
3046	0.0011648
3058	0.0010164
3070	0.0009548
3082	0.000854
3094	0.000756
3106	0.0007
3118	0.0005628
3130	0.00049
3142	0.0004816
3154	0.0005348
3166	0.0004508
3178	0.0003416
3190	0.0003388
3202	0.000238
3214	0.0002212
3226	0.0001232
3238	6.44e-05
3250	0.0001176
3262	0.0001288
3274	7.84e-05
3286	5.32e-05
3298	6.16e-05
3310	7.56e-05
3322	7.84e-05
3334	0.0001064
3346	0.0001036
3358	0.0001008
3370	0.000126
3382	9.8e-05
3394	5.88e-05
3406	0.000112
3418	8.4e-05
3430	6.16e-05
3442	5.32e-05
3454	3.64e-05
3466	5.32e-05
3478	7.28e-05
3490	5.32e-05
3502	5.04e-05
3514	9.52e-05
3526	8.4e-05
3538	0.0001232
3550	1.96e-05
3562	7.28e-05
3574	9.52e-05
3586	1.4e-05
3598	5.32e-05
3610	8.12e-05
3622	3.64e-05
3634	7.56e-05
3646	8.96e-05
3658	6.44e-05
3670	7.28e-05
3682	3.08e-05
3694	0.0001036
3706	8.96e-05
3718	6.72e-05
3730	6.44e-05
3742	4.48e-05
3754	8.68e-05
3766	0.0001176
3778	5.04e-05
3790	7.84e-05
3802	0.0001456
3814	7.84e-05
3826	5.32e-05
3838	5.32e-05
