Infrared Spectrum: 1-CHLORO-2-METHYL BUTANE
Formula: C5 H11 Cl
CAS: 616-13-7
Class: COBLENTZ
Instrument: Not specified, most likely a prism, grating, or hybrid spectrometer.
Sampling: TRANSMISSION
Path length: 0.0025 CM
Resolution: 4
Origin: TENNESSEE EASTMAN COMPANY, RESEARCH LABORATORIES
MICROMETERS	TRANSMITTANCE
2.01	0.933
2.04987	0.935
2.08973	0.936
2.1296	0.938
2.16946	0.945
2.20933	0.931
2.24919	0.87
2.28906	0.863
2.32893	0.868
2.36879	0.882
2.40866	0.887
2.44852	0.888
2.48839	0.906
2.52826	0.921
2.56812	0.923
2.60799	0.923
2.64785	0.928
2.68772	0.93
2.72758	0.933
2.76745	0.94
2.80732	0.943
2.84718	0.945
2.88705	0.945
2.92691	0.943
2.96678	0.94
3.00664	0.938
3.04651	0.938
3.08638	0.935
3.12624	0.906
3.16611	0.883
3.20597	0.883
3.24584	0.863
3.2857	0.792
3.32557	0.549
3.36544	0.023
3.4053	0.051
3.44517	0.134
3.48503	0.31
3.5249	0.686
3.56477	0.82
3.60463	0.868
3.6445	0.852
3.68436	0.875
3.72423	0.887
3.76409	0.91
3.80396	0.913
3.84383	0.916
3.88369	0.926
3.92356	0.94
3.96342	0.948
4.00329	0.951
4.04315	0.953
4.08302	0.955
4.12289	0.953
4.16275	0.948
4.20262	0.941
4.24248	0.953
4.28235	0.951
4.32222	0.95
4.36208	0.946
4.40195	0.953
4.44181	0.951
4.48168	0.956
4.52154	0.958
4.56141	0.96
4.60128	0.961
4.64114	0.963
4.68101	0.963
4.72087	0.965
4.76074	0.965
4.8006	0.963
4.84047	0.963
4.88034	0.963
4.9202	0.965
4.96007	0.965
4.99993	0.968
5.0398	0.965
5.07967	0.963
5.11953	0.966
5.1594	0.966
5.19926	0.965
5.23913	0.963
5.27899	0.961
5.31886	0.961
5.35873	0.961
5.39859	0.96
5.43846	0.953
5.47832	0.953
5.51819	0.955
5.55805	0.956
5.59792	0.955
5.63779	0.95
5.67765	0.948
5.71752	0.933
5.75738	0.933
5.79725	0.94
5.83711	0.935
5.87698	0.933
5.91685	0.93
5.95671	0.92
5.99658	0.916
6.03644	0.921
6.07631	0.908
6.11618	0.921
6.15604	0.931
6.19591	0.93
6.23577	0.931
6.27564	0.933
6.3155	0.926
6.35537	0.92
6.39524	0.91
6.4351	0.908
6.47497	0.892
6.51483	0.893
6.5547	0.872
6.59456	0.862
6.63443	0.833
6.6743	0.775
6.71416	0.649
6.75403	0.42
6.79389	0.127
6.83376	0.081
6.87363	0.242
6.91349	0.272
6.95336	0.556
6.99322	0.704
7.03309	0.762
7.07295	0.785
7.11282	0.769
7.15269	0.684
7.19255	0.463
7.23242	0.207
7.27228	0.436
7.31215	0.679
7.35201	0.745
7.39188	0.747
7.43175	0.759
7.47161	0.617
7.51148	0.686
7.55134	0.749
7.59121	0.682
7.63107	0.543
7.67094	0.506
7.71081	0.445
7.75067	0.546
7.79054	0.451
7.8304	0.485
7.87027	0.574
7.91014	0.519
7.95	0.553
7.98987	0.598
8.02973	0.745
8.0696	0.838
8.10946	0.867
8.14933	0.87
8.1892	0.868
8.22906	0.83
8.26893	0.764
8.30879	0.82
8.34866	0.865
8.38852	0.872
8.42839	0.883
8.46826	0.878
8.50812	0.862
8.54799	0.857
8.58785	0.799
8.62772	0.767
8.66759	0.818
8.70745	0.855
8.74732	0.86
8.78718	0.863
8.82705	0.863
8.86691	0.86
8.90678	0.86
8.94665	0.862
8.98651	0.853
9.02638	0.848
9.06624	0.848
9.10611	0.835
9.14597	0.82
9.18584	0.82
9.22571	0.81
9.26557	0.827
9.30544	0.855
9.3453	0.873
9.38517	0.882
9.42503	0.89
9.4649	0.89
9.50477	0.89
9.54463	0.89
9.5845	0.868
9.62436	0.84
9.66423	0.827
9.7041	0.825
9.74396	0.825
9.78383	0.8
9.82369	0.777
9.86356	0.772
9.90342	0.749
9.94329	0.722
9.98316	0.765
10.023	0.813
10.0629	0.83
10.1028	0.825
10.1426	0.775
10.1825	0.709
10.2224	0.661
10.2622	0.596
10.3021	0.549
10.3419	0.637
10.3818	0.749
10.4217	0.823
10.4615	0.862
10.5014	0.88
10.5413	0.873
10.5811	0.87
10.621	0.852
10.6609	0.817
10.7007	0.724
10.7406	0.602
10.7805	0.553
10.8203	0.596
10.8602	0.634
10.9001	0.602
10.9399	0.612
10.9798	0.72
11.0197	0.803
11.0595	0.843
11.0994	0.86
11.1393	0.857
11.1791	0.802
11.219	0.762
11.2589	0.802
11.2987	0.825
11.3386	0.818
11.3785	0.815
11.4183	0.837
11.4582	0.863
11.4981	0.875
11.5379	0.895
11.5778	0.908
11.6177	0.918
11.6575	0.921
11.6974	0.925
11.7373	0.928
11.7771	0.931
11.817	0.933
11.8568	0.935
11.8967	0.935
11.9366	0.935
11.9764	0.935
12.0163	0.933
12.0562	0.925
12.096	0.913
12.1359	0.901
12.1758	0.883
12.2156	0.862
12.2555	0.847
12.2954	0.799
12.3352	0.727
12.3751	0.704
12.415	0.704
12.4548	0.732
12.4947	0.74
12.5346	0.754
12.5744	0.775
12.6143	0.774
12.6542	0.75
12.694	0.697
12.7339	0.614
12.7738	0.546
12.8136	0.456
12.8535	0.388
12.8934	0.385
12.9332	0.387
12.9731	0.362
13.013	0.388
13.0528	0.521
13.0927	0.646
13.1326	0.704
13.1724	0.732
13.2123	0.744
13.2521	0.744
13.292	0.73
13.3319	0.7
13.3717	0.654
13.4116	0.583
13.4515	0.48
13.4913	0.38
13.5312	0.272
13.5711	0.187
13.6109	0.126
13.6508	0.099
13.6907	0.093
13.7305	0.091
13.7704	0.107
13.8103	0.157
13.8501	0.254
13.89	0.378
13.9299	0.468
13.9697	0.548
14.0096	0.606
14.0495	0.651
14.0893	0.679
14.1292	0.702
14.1691	0.72
14.2089	0.729
14.2488	0.735
14.2887	0.737
14.3285	0.737
14.3684	0.727
14.4083	0.7
14.4481	0.669
14.488	0.621
14.5279	0.549
14.5677	0.46
14.6076	0.363
14.6475	0.308
14.6873	0.285
14.7272	0.285
14.767	0.317
14.8069	0.387
14.8468	0.46
14.8866	0.524
14.9265	0.588
14.9664	0.631
15.0062	0.682
15.0461	0.704
15.086	0.71
15.1258	0.712
15.1657	0.715
15.2056	0.715
15.2454	0.722
15.2853	0.722
15.3252	0.722
15.365	0.724
15.4049	0.722
15.4448	0.722
15.4846	0.724
15.5245	0.724
15.5644	0.72
15.6042	0.72
15.6441	0.72
15.684	0.72
15.7238	0.72
15.7637	0.72
15.8036	0.719
15.8434	0.72
15.8833	0.72
15.9232	0.72
15.963	0.72
