Infrared Spectrum: 1-Butene, 2-methyl-
Formula: C 5 H 10
CAS: 563-46-2
State: gas
Origin: Sadtler Research Labs Under US-EPA Contract
1/CM	ABSORBANCE
450	0
462	0.0754215
474	0.0466782
486	0.037295
498	0.0591495
510	0.0736399
522	0.0770843
534	0.0950192
546	0.0827855
558	0.0627127
570	0.0507165
582	0.0478659
594	0.0500039
606	0.0412146
618	0.044659
630	0.0395517
642	0.0440652
654	0.0407395
666	0.0412146
678	0.0397893
690	0.0407395
702	0.0407395
714	0.0416897
726	0.0438276
738	0.0491724
750	0.0508353
762	0.046797
774	0.0592682
786	0.0581993
798	0.0564176
810	0.0642567
822	0.0472721
834	0.0462031
846	0.0710269
858	0.121862
870	0.245625
882	0.375326
894	0.552299
906	0.351452
918	0.188138
930	0.0859924
942	0.0753027
954	0.0643755
966	0.0577242
978	0.0579617
990	0.0616437
1002	0.0685326
1014	0.069364
1026	0.0662759
1038	0.0648506
1050	0.0690077
1062	0.0796974
1074	0.0909809
1086	0.088843
1098	0.0802912
1110	0.062
1122	0.0580805
1134	0.0542797
1146	0.0505977
1158	0.0500039
1170	0.0485786
1182	0.0505977
1194	0.048341
1206	0.0519042
1218	0.0687701
1230	0.0859924
1242	0.0915748
1254	0.0805288
1266	0.0732836
1278	0.0726897
1290	0.0680575
1302	0.0659196
1314	0.064138
1326	0.0644943
1338	0.0671073
1350	0.0755403
1362	0.115805
1374	0.168065
1386	0.192414
1398	0.164027
1410	0.119012
1422	0.139203
1434	0.196452
1446	0.290284
1458	0.324134
1470	0.27223
1482	0.183743
1494	0.103096
1506	0.0700767
1518	0.0584368
1530	0.0565364
1542	0.0545173
1554	0.0545173
1566	0.0547548
1578	0.0561801
1590	0.0581993
1602	0.0621188
1614	0.0754215
1626	0.113904
1638	0.188732
1650	0.230184
1662	0.218663
1674	0.132671
1686	0.0692452
1698	0.056774
1710	0.0571303
1722	0.0553487
1734	0.0496475
1746	0.0489349
1758	0.0529732
1770	0.0637816
1782	0.0697203
1794	0.069364
1806	0.0570115
1818	0.0424023
1830	0.0371763
1842	0.0358697
1854	0.0363448
1866	0.0349196
1878	0.0345632
1890	0.0340881
1902	0.0342069
1914	0.0337318
1926	0.0330192
1938	0.0330192
1950	0.0324253
1962	0.032069
1974	0.032069
1986	0.032069
1998	0.032069
2010	0.0327816
2022	0.0326629
2034	0.0334943
2046	0.0334943
2058	0.0332567
2070	0.0327816
2082	0.0318314
2094	0.0314751
2106	0.0315939
2118	0.0312376
2130	0.0314751
2142	0.0314751
2154	0.0325441
2166	0.0324253
2178	0.0313563
2190	0.0311188
2202	0.0312376
2214	0.0313563
2226	0.0315939
2238	0.0308812
2250	0.0313563
2262	0.0315939
2274	0.0313563
2286	0.0314751
2298	0.0323065
2310	0.032069
2322	0.0327816
2334	0.0327816
2346	0.0308812
2358	0.0332567
2370	0.0324253
2382	0.0326629
2394	0.0338506
2406	0.0326629
2418	0.0326629
2430	0.0325441
2442	0.0331379
2454	0.0331379
2466	0.0330192
2478	0.0323065
2490	0.0317127
2502	0.0314751
2514	0.0315939
2526	0.0319502
2538	0.0319502
2550	0.0323065
2562	0.0326629
2574	0.0324253
2586	0.0324253
2598	0.0326629
2610	0.0332567
2622	0.0343257
2634	0.035751
2646	0.0353947
2658	0.0348008
2670	0.0345632
2682	0.0369387
2694	0.0389579
2706	0.0427586
2718	0.0471533
2730	0.0534483
2742	0.0564176
2754	0.0549924
2766	0.0513104
2778	0.0542797
2790	0.0598621
2802	0.0691265
2814	0.0827855
2826	0.109628
2838	0.160939
2850	0.225552
2862	0.324609
2874	0.41856
2886	0.524506
2898	0.602897
2910	0.621901
2922	0.675111
2934	0.756709
2946	0.828686
2958	0.900307
2970	1.13762
2982	1.10721
2994	0.774406
3006	0.357629
3018	0.198353
3030	0.139678
3042	0.122456
3054	0.132671
3066	0.214625
3078	0.283514
3090	0.286008
3102	0.195502
3114	0.0931188
3126	0.058318
3138	0.0511916
3150	0.0478659
3162	0.0448966
3174	0.0440652
3186	0.0433525
3198	0.0414521
3210	0.0393142
3222	0.0382452
3234	0.0358697
3246	0.0344445
3258	0.0339694
3270	0.0324253
3282	0.032069
3294	0.0324253
3306	0.0330192
3318	0.033613
3330	0.0327816
3342	0.033613
3354	0.0333755
3366	0.0340881
3378	0.033613
3390	0.0329004
3402	0.0323065
3414	0.0315939
3426	0.0319502
3438	0.032069
3450	0.0317127
3462	0.0324253
3474	0.0324253
3486	0.033613
3498	0.0325441
3510	0.0326629
3522	0.0330192
3534	0.0321878
3546	0.0318314
3558	0.0311188
3570	0.0323065
3582	0.0324253
3594	0.0318314
3606	0.0331379
3618	0.0324253
3630	0.0330192
3642	0.0333755
3654	0.0326629
3666	0.0325441
3678	0.032069
3690	0.0324253
3702	0.0312376
3714	0.0307625
3726	0.0307625
3738	0.0311188
3750	0.0321878
3762	0.033613
3774	0.0327816
3786	0.0323065
3798	0.0307625
3810	0.0324253
3822	0.0318314
3834	0.0329004
3846	0.0313563
3858	0.0311188
3870	0.0307625
3882	0.0329004
3894	0.0324253
3906	0.0317127
3918	0.0314751
3930	0.0325441
3942	0.0338506
3954	0.0318314
3966	0.0338506
