Infrared Spectrum: CYCLOPROPANECARBOXALDEHYDE
Formula: C4 H6 O
CAS: 1489-69-6
State: SOLUTION (10% IN CCl4 FOR 3800-1333, 10% IN CS2 FOR 1333-450, AND 10% IN C6H12 FOR 450-200 CM^-^1)
Class: COBLENTZ III
Instrument: PERKIN-ELMER 225
Sampling: TRANSMISSION
Path length: 0.011, 0.011, 0.010 CM
Resolution: 4
Origin: DOW CHEMICAL COMPANY
1/CM	TRANSMITTANCE
204.343	0.508
213.486	0.588
222.629	0.654
231.772	0.703
240.915	0.706
250.057	0.713
259.2	0.742
268.343	0.766
277.486	0.759
286.629	0.756
295.772	0.686
304.915	0.702
314.058	0.773
323.2	0.795
332.343	0.797
341.486	0.805
350.629	0.818
359.772	0.83
368.915	0.84
378.058	0.839
387.201	0.836
396.343	0.819
405.486	0.829
414.629	0.846
423.772	0.842
432.915	0.836
442.058	0.832
451.201	0.843
460.344	0.881
469.486	0.904
478.629	0.895
487.772	0.889
496.915	0.835
506.058	0.498
515.201	0.808
524.344	0.931
533.487	0.981
542.63	0.988
551.772	0.985
560.915	0.985
570.058	0.977
579.201	0.972
588.344	0.968
597.487	0.964
606.63	0.961
615.773	0.938
624.915	0.931
634.058	0.932
643.201	0.853
652.344	0.853
661.487	0.826
670.63	0.848
679.773	0.941
688.916	0.954
698.058	0.954
707.201	0.957
716.344	0.957
725.487	0.961
734.63	0.959
743.773	0.952
752.916	0.945
762.059	0.919
771.201	0.871
780.344	0.876
789.487	0.871
798.63	0.806
807.773	0.666
816.916	0.724
826.059	0.73
835.202	0.68
844.345	0.722
853.487	0.689
862.63	0.634
871.773	0.442
880.916	0.657
890.059	0.673
899.202	0.608
908.345	0.478
917.488	0.097
926.63	0.153
935.773	0.388
944.916	0.371
954.059	0.171
963.202	0.277
972.345	0.653
981.488	0.81
990.631	0.866
999.773	0.873
1008.92	0.822
1018.06	0.733
1027.2	0.3079
1036.34	0.6
1045.49	0.753
1054.63	0.561
1063.77	0.455
1072.92	0.726
1082.06	0.734
1091.2	0.693
1100.35	0.812
1109.49	0.872
1118.63	0.863
1127.77	0.843
1136.92	0.793
1146.06	0.743
1155.2	0.644
1164.35	0.458
1173.49	0.468
1182.63	0.435
1191.77	0.3081
1200.92	0.716
1210.06	0.786
1219.2	0.746
1228.35	0.558
1237.49	0.4781
1246.63	0.849
1255.77	0.902
1264.92	0.919
1274.06	0.896
1283.2	0.833
1292.35	0.777
1301.49	0.872
1310.63	0.598
1319.77	0.878
1328.92	0.895
1338.06	0.849
1347.2	0.795
1356.35	0.468
1365.49	0.767
1374.63	0.848
1383.77	0.813
1392.92	0.511
1402.06	0.744
1411.2	0.734
1420.35	0.644
1429.49	0.573
1438.63	0.604
1447.77	0.667
1456.92	0.63
1466.06	0.818
1475.2	0.862
1484.35	0.875
1493.49	0.849
1502.63	0.81
1511.77	0.76
1520.92	0.727
1530.06	0.676
1539.2	0.574
1548.35	0.541
1557.49	0.604
1566.63	0.679
1575.77	0.694
1584.92	0.714
1594.06	0.782
1603.2	0.852
1612.35	0.875
1621.49	0.891
1630.63	0.891
1639.77	0.872
1648.92	0.839
1658.06	0.822
1667.2	0.732
1676.35	0.587
1685.49	0.418
1694.63	0.091
1703.78	0.012
1712.92	0.01
1722.06	0.011
1731.2	0.1611
1740.35	0.333
1749.49	0.448
1758.63	0.634
1767.78	0.712
1776.92	0.734
1786.06	0.82
1795.2	0.81
1804.35	0.806
1813.49	0.83
1822.63	0.863
1831.78	0.891
1840.92	0.871
1850.06	0.899
1859.2	0.934
1868.35	0.954
1877.49	0.965
1886.63	0.965
1895.78	0.955
1904.92	0.946
1914.06	0.955
1923.2	0.965
1932.35	0.975
1941.49	0.977
1950.63	0.982
1959.78	0.985
1968.92	0.984
1978.06	0.985
1987.2	0.984
1996.35	0.9541
2005.49	0.991
2014.63	0.975
2023.78	0.9889
2032.92	0.9891
2042.06	0.9909
2051.2	0.994
2060.35	0.994
2069.49	0.994
2078.63	0.9813
2087.78	0.9619
2096.92	0.974
2106.06	0.9722
2115.2	0.9745
2124.35	0.9988
2133.49	1.0037
2142.63	1.004
2151.78	1.002
2160.92	1.001
2170.06	1.001
2179.2	1
2188.35	1
2197.49	1.001
2206.63	1
2215.78	0.992
2224.92	0.988
2234.06	0.9907
2243.2	0.9943
2252.35	0.9858
2261.49	0.9783
2270.63	0.977
2279.78	0.977
2288.92	0.977
2298.06	0.977
2307.21	0.969
2316.35	0.968
2325.49	0.968
2334.63	0.969
2343.78	0.9776
2352.92	0.994
2362.06	0.992
2371.21	0.992
2380.35	0.997
2389.49	1
2398.63	0.998
2407.78	0.992
2416.92	0.992
2426.06	0.9884
2435.21	0.9799
2444.35	0.977
2453.49	0.9715
2462.63	0.97
2471.78	0.963
2480.92	0.955
2490.06	0.955
2499.21	0.9545
2508.35	0.952
2517.49	0.952
2526.63	0.9486
2535.78	0.9431
2544.92	0.9267
2554.06	0.9146
2563.21	0.912
2572.35	0.9198
2581.49	0.9208
2590.63	0.9172
2599.78	0.915
2608.92	0.914
2618.06	0.9033
2627.21	0.9003
2636.35	0.889
2645.49	0.868
2654.63	0.8431
2663.78	0.8081
2672.92	0.7292
2682.06	0.5682
2691.21	0.5732
2700.35	0.663
2709.49	0.6594
2718.63	0.5537
2727.78	0.3788
2736.92	0.4552
2746.06	0.5872
2755.21	0.646
2764.35	0.695
2773.49	0.7687
2782.63	0.782
2791.78	0.7581
2800.92	0.682
2810.06	0.5733
2819.21	0.4556
2828.35	0.4518
2837.49	0.5598
2846.63	0.6847
2855.78	0.744
2864.92	0.7772
2874.06	0.7924
2883.21	0.8132
2892.35	0.816
2901.49	0.8161
2910.64	0.819
2919.78	0.82
2928.92	0.82
2938.06	0.816
2947.21	0.812
2956.35	0.805
2965.49	0.797
2974.64	0.793
2983.78	0.7791
2992.92	0.7423
3002.06	0.6446
3011.21	0.4771
3020.35	0.5714
3029.49	0.6983
3038.64	0.7121
3047.78	0.713
3056.92	0.735
3066.06	0.7588
3075.21	0.7508
3084.35	0.7205
3093.49	0.6891
3102.64	0.7396
3111.78	0.7937
3120.92	0.8075
3130.06	0.8158
3139.21	0.8258
3148.35	0.829
3157.49	0.8358
3166.64	0.839
3175.78	0.843
3184.92	0.8488
3194.06	0.851
3203.21	0.852
3212.35	0.8557
3221.49	0.858
3230.64	0.861
3239.78	0.865
3248.92	0.868
3258.06	0.8704
3267.21	0.873
3276.35	0.878
3285.49	0.8843
3294.64	0.8916
3303.78	0.898
3312.92	0.902
3322.06	0.9032
3331.21	0.9072
3340.35	0.911
3349.49	0.911
3358.64	0.911
3367.78	0.909
3376.92	0.9049
3386.06	0.8914
3395.21	0.8785
3404.35	0.8785
3413.49	0.8719
3422.64	0.8711
3431.78	0.9026
3440.92	0.934
3450.06	0.945
3459.21	0.951
3468.35	0.951
3477.49	0.9531
3486.64	0.951
3495.78	0.948
3504.92	0.946
3514.07	0.946
3523.21	0.9456
3532.35	0.945
3541.49	0.9468
3550.64	0.9514
3559.78	0.957
3568.92	0.961
3578.07	0.9646
3587.21	0.9683
3596.35	0.975
3605.49	0.974
3614.64	0.979
3623.78	0.9813
3632.92	0.9873
3642.07	0.991
3651.21	0.9887
3660.35	0.9847
3669.49	0.978
3678.64	0.9748
3687.78	0.974
3696.92	0.9847
3706.07	0.994
3715.21	0.995
3724.35	0.994
3733.49	0.9972
3742.64	0.9996
3751.78	0.997
3760.92	0.995
3770.07	0.997
3779.21	0.997
3788.35	0.995
