Infrared Spectrum: BUTANOL, 3-METHYL-
Formula: C5 H12 O
CAS: 123-51-3
State: LIQUID (NEAT)
Class: COBLENTZ III
Instrument: PERKIN-ELMER 421 (GRATING)
Sampling: TRANSMISSION
Path length: 0.0007 CM CELL
Resolution: 4
Origin: US INDUSTRIAL CHEMICALS COMPANY, CINCINNATI, OHIO
1/CM	TRANSMITTANCE
602.856	0.652
611.423	0.651
619.99	0.649
628.557	0.651
637.124	0.652
645.691	0.656
654.258	0.66
662.826	0.665
671.393	0.672
679.96	0.676
688.527	0.68
697.094	0.687
705.661	0.696
714.228	0.707
722.795	0.71
731.362	0.723
739.929	0.729
748.496	0.727
757.063	0.716
765.63	0.716
774.198	0.74
782.765	0.765
791.332	0.774
799.899	0.778
808.466	0.782
817.033	0.774
825.6	0.74
834.167	0.729
842.734	0.792
851.301	0.817
859.868	0.824
868.435	0.824
877.002	0.821
885.569	0.812
894.137	0.794
902.704	0.794
911.271	0.802
919.838	0.804
928.405	0.795
936.972	0.777
945.539	0.77
954.106	0.703
962.673	0.582
971.24	0.662
979.807	0.668
988.374	0.634
996.941	0.58
1005.51	0.409
1014.08	0.392
1022.64	0.577
1031.21	0.551
1039.78	0.333
1048.34	0.226
1056.91	0.217
1065.48	0.299
1074.05	0.5121
1082.61	0.726
1091.18	0.77
1099.75	0.757
1108.31	0.706
1116.88	0.663
1125.45	0.66
1134.01	0.703
1142.58	0.743
1151.15	0.774
1159.72	0.764
1168.28	0.734
1176.85	0.782
1185.42	0.802
1193.98	0.792
1202.55	0.771
1211.12	0.736
1219.69	0.736
1228.25	0.74
1236.82	0.756
1245.39	0.758
1253.95	0.754
1262.52	0.754
1271.09	0.758
1279.65	0.758
1288.22	0.746
1296.79	0.724
1305.36	0.709
1313.92	0.692
1322.49	0.682
1331.06	0.675
1339.62	0.666
1348.19	0.648
1356.76	0.607
1365.33	0.507
1373.89	0.534
1382.46	0.482
1391.03	0.601
1399.59	0.635
1408.16	0.626
1416.73	0.598
1425.3	0.588
1433.86	0.59
1442.43	0.578
1451	0.476
1459.56	0.356
1468.13	0.365
1476.7	0.551
1485.26	0.67
1493.83	0.763
1502.4	0.804
1510.97	0.822
1519.53	0.822
1528.1	0.841
1536.67	0.843
1545.23	0.845
1553.8	0.848
1562.37	0.849
1570.94	0.851
1579.5	0.852
1588.07	0.855
1596.64	0.856
1605.2	0.859
1613.77	0.858
1622.34	0.858
1630.91	0.858
1639.47	0.858
1648.04	0.86
1656.61	0.859
1665.17	0.866
1673.74	0.868
1682.31	0.868
1690.87	0.869
1699.44	0.869
1708.01	0.868
1716.58	0.87
1725.14	0.87
1733.71	0.868
1742.28	0.868
1750.84	0.868
1759.41	0.868
1767.98	0.868
1776.55	0.868
1785.11	0.87
1793.68	0.87
1802.25	0.869
1810.81	0.872
1819.38	0.872
1827.95	0.87
1836.51	0.87
1845.08	0.87
1853.65	0.873
1862.22	0.873
1870.78	0.872
1879.35	0.872
1887.92	0.872
1896.48	0.875
1905.05	0.873
1913.62	0.873
1922.19	0.873
1930.75	0.876
1939.32	0.876
1947.89	0.875
1956.45	0.878
1965.02	0.878
1973.59	0.88
1982.16	0.883
1990.72	0.886
1999.29	0.86
2007.86	0.8553
2016.42	0.855
2024.99	0.856
2033.56	0.8587
2042.12	0.859
2050.69	0.859
2059.26	0.8613
2067.83	0.862
2076.39	0.863
2084.96	0.863
2093.53	0.863
2102.09	0.863
2110.66	0.863
2119.23	0.863
2127.8	0.863
2136.36	0.863
2144.93	0.86
2153.5	0.86
2162.06	0.8595
2170.63	0.86
2179.2	0.86
2187.76	0.86
2196.33	0.8626
2204.9	0.862
2213.47	0.862
2222.03	0.862
2230.6	0.862
2239.17	0.859
2247.73	0.859
2256.3	0.859
2264.87	0.859
2273.44	0.8587
2282	0.86
2290.57	0.86
2299.14	0.86
2307.7	0.86
2316.27	0.86
2324.84	0.858
2333.41	0.858
2341.97	0.859
2350.54	0.859
2359.11	0.8577
2367.67	0.855
2376.24	0.853
2384.81	0.852
2393.37	0.8519
2401.94	0.849
2410.51	0.849
2419.08	0.851
2427.64	0.851
2436.21	0.851
2444.78	0.846
2453.34	0.846
2461.91	0.846
2470.48	0.846
2479.05	0.8489
2487.61	0.848
2496.18	0.8462
2504.75	0.8432
2513.31	0.841
2521.88	0.839
2530.45	0.8351
2539.02	0.8342
2547.58	0.832
2556.15	0.8294
2564.72	0.828
2573.28	0.826
2581.85	0.8242
2590.42	0.8212
2598.98	0.8195
2607.55	0.818
2616.12	0.8156
2624.69	0.812
2633.25	0.811
2641.82	0.8113
2650.39	0.8097
2658.95	0.809
2667.52	0.8057
2676.09	0.7996
2684.66	0.7928
2693.22	0.784
2701.79	0.7744
2710.36	0.7689
2718.92	0.7589
2727.49	0.758
2736.06	0.758
2744.62	0.7565
2753.19	0.752
2761.76	0.7491
2770.33	0.7412
2778.89	0.7268
2787.46	0.7105
2796.03	0.681
2804.59	0.654
2813.16	0.616
2821.73	0.5712
2830.3	0.5425
2838.86	0.4921
2847.43	0.3974
2856	0.3298
2864.56	0.2017
2873.13	0.1457
2881.7	0.1914
2890.27	0.22
2898.83	0.2015
2907.4	0.1538
2915.97	0.128
2924.53	0.109
2933.1	0.1207
2941.67	0.1289
2950.23	0.0898
2958.8	0.0476
2967.37	0.1632
2975.94	0.3531
2984.5	0.6041
2993.07	0.6762
3001.64	0.7012
3010.2	0.7303
3018.77	0.741
3027.34	0.743
3035.91	0.743
3044.47	0.74
3053.04	0.7341
3061.61	0.7261
3070.17	0.7122
3078.74	0.7071
3087.31	0.6866
3095.87	0.6781
3104.44	0.6577
3113.01	0.6415
3121.58	0.6108
3130.14	0.5961
3138.71	0.5665
3147.28	0.5489
3155.84	0.5245
3164.41	0.4911
3172.98	0.4651
3181.55	0.4333
3190.11	0.4088
3198.68	0.3834
3207.25	0.3466
3215.81	0.3263
3224.38	0.3091
3232.95	0.2879
3241.52	0.2627
3250.08	0.2433
3258.65	0.2325
3267.22	0.2161
3275.78	0.1972
3284.35	0.1874
3292.92	0.1814
3301.48	0.1774
3310.05	0.175
3318.62	0.175
3327.19	0.1775
3335.75	0.1805
3344.32	0.1854
3352.89	0.1939
3361.45	0.2018
3370.02	0.2123
3378.59	0.2251
3387.16	0.2485
3395.72	0.2672
3404.29	0.2922
3412.86	0.3228
3421.42	0.3485
3429.99	0.3637
3438.56	0.3944
3447.13	0.4235
3455.69	0.454
3464.26	0.4852
3472.83	0.5198
3481.39	0.5673
3489.96	0.5894
3498.53	0.6212
3507.09	0.6697
3515.66	0.6944
3524.23	0.7157
3532.8	0.7414
3541.36	0.7675
3549.93	0.7908
3558.5	0.8124
3567.06	0.8311
3575.63	0.8429
3584.2	0.853
3592.77	0.8592
3601.33	0.8681
3609.9	0.872
3618.47	0.8731
3627.03	0.878
3635.6	0.88
3644.17	0.8919
3652.73	0.893
3661.3	0.895
3669.87	0.895
3678.44	0.896
3687	0.8969
3695.57	0.896
3704.14	0.8969
3712.7	0.896
3721.27	0.897
3729.84	0.897
3738.41	0.896
3746.97	0.896
3755.54	0.896
3764.11	0.896
3772.67	0.896
3781.24	0.896
3789.81	0.896
3798.38	0.896
3806.94	0.8963
3815.51	0.896
3824.08	0.8967
3832.64	0.897
3841.21	0.897
3849.78	0.897
3858.34	0.897
3866.91	0.896
3875.48	0.896
3884.05	0.896
3892.61	0.896
3901.18	0.896
3909.75	0.897
3918.31	0.897
3926.88	0.8965
3935.45	0.896
3944.02	0.8951
3952.58	0.893
3961.15	0.893
3969.72	0.8954
3978.28	0.895
3986.85	0.8938
