Infrared Spectrum: 1-Butanol, 3-methyl-
Formula: C 5 H 12 O
CAS: 123-51-3
State: gas
Origin: Sadtler Research Labs Under US-EPA Contract
1/CM	ABSORBANCE
450	0.0668023
462	0.0203615
474	0.033192
486	0.0138067
498	0.0230112
510	0.0330525
522	0.0239875
534	0.0223139
546	0.0262189
558	0.0186879
570	0.0110175
582	0.0100413
594	0.0105991
606	0.0118543
618	0.00836772
630	0.0103202
642	0.0103202
654	0.0112964
666	0.00850718
678	0.00822826
690	0.0132489
702	0.0122727
714	0.00976234
726	0.0142251
738	0.0110175
750	0.0138067
762	0.0171538
774	0.0400256
786	0.0193852
798	0.0161776
810	0.0210588
822	0.0336103
834	0.0447673
846	0.0408624
858	0.0323552
870	0.0230112
882	0.0262189
894	0.0333314
906	0.0396072
918	0.0472776
930	0.0566216
942	0.0732176
954	0.111849
966	0.150201
978	0.161915
990	0.171678
1002	0.221326
1014	0.252147
1026	0.26442
1038	0.400116
1050	0.551293
1062	0.50806
1074	0.30849
1086	0.159126
1098	0.126074
1110	0.122587
1122	0.105991
1134	0.0857691
1146	0.0753095
1158	0.0857691
1170	0.100692
1182	0.0994364
1194	0.095392
1206	0.102365
1218	0.106549
1230	0.106131
1242	0.0980418
1254	0.0900925
1266	0.0924633
1278	0.097205
1290	0.0923238
1302	0.0828404
1314	0.0776803
1326	0.0836772
1338	0.0965077
1350	0.105852
1362	0.143227
1374	0.193992
1386	0.240293
1398	0.196362
1410	0.107944
1422	0.0698705
1434	0.0716835
1446	0.100552
1458	0.153687
1470	0.199152
1482	0.156895
1494	0.0859086
1506	0.0359812
1518	0.0195247
1530	0.014504
1542	0.0143646
1554	0.0119937
1566	0.011157
1578	0.0121332
1590	0.0110175
1602	0.0117148
1614	0.0114359
1626	0.00962288
1638	0.0100413
1650	0.00934395
1662	0.0103202
1674	0.0100413
1686	0.00976234
1698	0.00906503
1710	0.00878611
1722	0.00836772
1734	0.00906503
1746	0.00948342
1758	0.0122727
1770	0.0119937
1782	0.00822826
1794	0.0069731
1806	0.00753095
1818	0.00711256
1830	0.0069731
1842	0.0069731
1854	0.00655471
1866	0.00711256
1878	0.00725202
1890	0.00739149
1902	0.00850718
1914	0.00767041
1926	0.00641525
1938	0.00655471
1950	0.00627579
1962	0.00543902
1974	0.00488117
1986	0.00488117
1998	0.00669418
2010	0.00739149
2022	0.00780987
2034	0.00962288
2046	0.00962288
2058	0.00934395
2070	0.00836772
2082	0.00683364
2094	0.0058574
2106	0.00529956
2118	0.00488117
2130	0.00502063
2142	0.00446278
2154	0.00432332
2166	0.0040444
2178	0.00474171
2190	0.00446278
2202	0.00446278
2214	0.00418386
2226	0.00432332
2238	0.00488117
2250	0.00334709
2262	0.00432332
2274	0.00502063
2286	0.00529956
2298	0.0058574
2310	0.00516009
2322	0.0058574
2334	0.00306816
2346	0.00167354
2358	0.00223139
2370	0.00502063
2382	0.00432332
2394	0.00502063
2406	0.00529956
2418	0.0058574
2430	0.00543902
2442	0.00432332
2454	0.00390494
2466	0.00320763
2478	0.0029287
2490	0.00251032
2502	0.00209193
2514	0.00181301
2526	0.00181301
2538	0.00209193
2550	0.00209193
2562	0.00334709
2574	0.00334709
2586	0.00488117
2598	0.00627579
2610	0.00767041
2622	0.00962288
2634	0.010878
2646	0.0117148
2658	0.0121332
2670	0.0114359
2682	0.0119937
2694	0.0143646
2706	0.0177117
2718	0.0244058
2730	0.0305422
2742	0.0361207
2754	0.0357023
2766	0.036539
2778	0.0405834
2790	0.0471382
2802	0.0541113
2814	0.0645709
2826	0.0846534
2838	0.123005
2850	0.189947
2862	0.311558
2874	0.55729
2886	0.73887
2898	0.762718
2910	0.790192
2922	0.880284
2934	0.970516
2946	1.00887
2958	1.22992
2970	1.28835
2982	0.802325
2994	0.233878
3006	0.0815853
3018	0.0467198
3030	0.0358417
3042	0.0302633
3054	0.027474
3066	0.0248242
3078	0.0221745
3090	0.0198036
3102	0.0186879
3114	0.0175722
3126	0.0161776
3138	0.0161776
3150	0.0172933
3162	0.0177117
3174	0.018409
3186	0.0174328
3198	0.0153408
3210	0.0117148
3222	0.00948342
3234	0.00655471
3246	0.00543902
3258	0.0040444
3270	0.00264978
3282	0.0029287
3294	0.00348655
3306	0.00488117
3318	0.00516009
3330	0.00529956
3342	0.00474171
3354	0.00446278
3366	0.00348655
3378	0.00264978
3390	0.00348655
3402	0.00320763
3414	0.00278924
3426	0.00306816
3438	0.00390494
3450	0.00529956
3462	0.00474171
3474	0.00571794
3486	0.00641525
3498	0.00474171
3510	0.00543902
3522	0.00362601
3534	0.00167354
3546	0.00320763
3558	0.00334709
3570	0.00264978
3582	0.0029287
3594	0.00502063
3606	0.00362601
3618	0.0069731
3630	0.0154803
3642	0.0336103
3654	0.0852113
3666	0.142391
3678	0.128445
3690	0.0619211
3702	0.0188274
3714	0.00725202
3726	0.00153408
3738	0.00251032
3750	0.00153408
3762	0.00153408
3774	0.0029287
3786	0.00418386
3798	0.00139462
3810	0.00432332
3822	0.00418386
3834	0.0029287
3846	0.00641525
3858	0.00334709
3870	0.00571794
3882	0.00264978
3894	0.00264978
3906	0.00209193
3918	0.00153408
3930	0.00167354
3942	0.00153408
3954	0.00153408
3966	0.00153408
