Infrared Spectrum: Ethylene, 1,2-dichloro-1,2-difluoro-
Formula: C2 Cl2 F2
CAS: 79-35-6
State: GAS (60 mmHg, N2 ADDED, TOTAL PRESSURE 600 mmHg)
Class: COBLENTZ
Instrument: DOW KBr FOREPRISM-GRATING
Instrument parameters: GRATING CHANGED AT 5.0, 7.5, 15.0 MICRON
Sampling: TRANSMISSION
Path length: 5 CM
Resolution: 2
Origin: DOW CHEMICAL COMPANY
1/CM	TRANSMITTANCE
468	0.8602
477	0.8581
486	0.8579
495	0.8561
504	0.8534
513	0.8506
522	0.848
531	0.8463
540	0.845
549	0.8432
558	0.8398
567	0.8414
576	0.8503
585	0.8543
594	0.851
603	0.8512
612	0.8514
621	0.8569
630	0.8547
639	0.8473
648	0.8393
657	0.8376
666	0.8145
675	0.8408
684	0.8464
693	0.8546
702	0.8626
711	0.8669
720	0.862
729	0.8661
738	0.8604
747	0.8583
756	0.8606
765	0.8625
774	0.866
783	0.8696
792	0.8664
801	0.8514
810	0.8491
819	0.8501
828	0.839
837	0.7843
846	0.6764
855	0.6644
864	0.6334
873	0.2133
882	0.0155
891	0.0094
900	0.1595
909	0.7934
918	0.7916
927	0.7428
936	0.5612
945	0.0893
954	0.0379
963	0.1761
972	0.5669
981	0.3187
990	0.254
999	0.3664
1008	0.7429
1017	0.7527
1026	0.6803
1035	0.6939
1044	0.8045
1053	0.7932
1062	0.7642
1071	0.7355
1080	0.6997
1089	0.7808
1098	0.7892
1107	0.7754
1116	0.7358
1125	0.6813
1134	0.6526
1143	0.5104
1152	0.0985
1161	0.0035
1170	0.0043
1179	0.06
1188	0.4322
1197	0.176
1206	0.0072
1215	0.0064
1224	0.0106
1233	0.2558
1242	0.8006
1251	0.8406
1260	0.8423
1269	0.8404
1278	0.8353
1287	0.8246
1296	0.8032
1305	0.7531
1314	0.6647
1323	0.6583
1332	0.724
1341	0.8401
1350	0.8239
1359	0.8035
1368	0.7991
1377	0.8117
1386	0.8451
1395	0.854
1404	0.857
1413	0.8565
1422	0.854
1431	0.8582
1440	0.8584
1449	0.8575
1458	0.8551
1467	0.853
1476	0.8511
1485	0.8449
1494	0.8334
1503	0.8375
1512	0.8579
1521	0.8659
1530	0.8668
1539	0.8721
1548	0.8721
1557	0.8789
1566	0.8726
1575	0.8698
1584	0.8642
1593	0.8607
1602	0.8634
1611	0.8672
1620	0.8653
1629	0.8622
1638	0.863
1647	0.8618
1656	0.8671
1665	0.8613
1674	0.8543
1683	0.8216
1692	0.7208
1701	0.5346
1710	0.5519
1719	0.704
1728	0.793
1737	0.7243
1746	0.738
1755	0.8694
1764	0.8765
1773	0.8776
1782	0.879
1791	0.8796
1800	0.8796
1809	0.8783
1818	0.8752
1827	0.8652
1836	0.835
1845	0.8268
1854	0.8172
1863	0.8332
1872	0.8422
1881	0.8223
1890	0.8554
1899	0.8752
1908	0.8809
1917	0.8815
1926	0.8814
1935	0.8827
1944	0.8895
1953	0.8948
1962	0.8868
1971	0.8869
1980	0.886
1989	0.8859
1998	0.8861
2007	0.8853
2016	0.8843
2025	0.8826
2034	0.8807
2043	0.8787
2052	0.8765
2061	0.8749
2070	0.8739
2079	0.8737
2088	0.8743
2097	0.877
2106	0.8797
2115	0.8811
2124	0.8769
2133	0.8693
2142	0.8632
2151	0.8693
2160	0.8759
2169	0.8778
2178	0.8801
2187	0.8814
2196	0.8825
2205	0.8836
2214	0.8845
2223	0.8852
2232	0.8848
2241	0.8839
2250	0.8819
2259	0.8793
2268	0.8779
2277	0.8783
2286	0.8803
2295	0.8822
2304	0.8833
2313	0.8831
2322	0.8823
2331	0.8811
2340	0.8791
2349	0.877
2358	0.8735
2367	0.8678
2376	0.859
2385	0.8448
2394	0.8234
2403	0.7893
2412	0.7954
2421	0.8567
2430	0.8846
2439	0.8879
2448	0.8883
2457	0.8885
2466	0.8886
2475	0.8886
2484	0.8884
2493	0.888
2502	0.8876
2511	0.8869
2520	0.8863
2529	0.8856
2538	0.8848
2547	0.884
2556	0.8831
2565	0.8822
2574	0.8814
2583	0.8809
2592	0.8806
2601	0.8803
2610	0.88
2619	0.8802
2628	0.8804
2637	0.8805
2646	0.8807
2655	0.8809
2664	0.8812
2673	0.8815
2682	0.8819
2691	0.8823
2700	0.8827
2709	0.8831
2718	0.8832
2727	0.8834
2736	0.8837
2745	0.8844
2754	0.8843
2763	0.8838
2772	0.8834
2781	0.8822
2790	0.881
2799	0.8798
2808	0.8778
2817	0.8757
2826	0.873
2835	0.8677
2844	0.8544
2853	0.8425
2862	0.8421
2871	0.8432
2880	0.8464
2889	0.8459
2898	0.8352
2907	0.8139
2916	0.795
2925	0.7994
2934	0.8183
2943	0.8412
2952	0.8549
2961	0.8585
2970	0.8622
2979	0.8672
2988	0.8707
2997	0.8722
3006	0.8729
3015	0.8735
3024	0.8736
3033	0.8736
3042	0.8736
3051	0.8734
3060	0.8733
3069	0.8732
3078	0.8733
3087	0.8733
3096	0.8734
3105	0.8734
3114	0.8735
3123	0.8736
3132	0.8737
3141	0.8739
3150	0.8741
3159	0.8742
3168	0.8743
3177	0.8743
3186	0.8743
3195	0.8743
3204	0.8743
3213	0.8745
3222	0.8752
3231	0.8757
3240	0.8763
3249	0.8765
3258	0.8764
3267	0.8763
3276	0.8759
3285	0.8751
3294	0.8744
3303	0.8738
3312	0.8733
3321	0.8727
3330	0.8722
3339	0.8718
3348	0.8717
3357	0.8714
3366	0.8713
3375	0.8711
3384	0.8709
3393	0.8707
3402	0.871
3411	0.8713
3420	0.8717
3429	0.872
3438	0.8724
3447	0.8727
3456	0.8731
3465	0.8735
3474	0.8744
3483	0.8752
3492	0.8761
3501	0.8767
3510	0.8773
3519	0.8773
3528	0.877
3537	0.8764
3546	0.8759
3555	0.8749
3564	0.8738
3573	0.8727
3582	0.8723
3591	0.8727
3600	0.874
3609	0.872
3618	0.8721
3627	0.876
3636	0.8801
3645	0.8778
3654	0.8766
3663	0.8774
3672	0.8702
3681	0.8612
3690	0.8646
3699	0.868
3708	0.8619
3717	0.8678
3726	0.8727
3735	0.8767
3744	0.8731
3753	0.8714
3762	0.8709
3771	0.8706
3780	0.8724
3789	0.8709
