Infrared Spectrum: Ethene, methoxy-
Formula: C 3 H 6 O
CAS: 107-25-5
State: gas
Origin: Sadtler Research Labs Under US-EPA Contract
1/CM	ABSORBANCE
450	0
462	0.0163352
474	0.0210133
486	0.0181758
498	0.0145713
510	0.0169487
522	0.0171021
534	0.0182525
546	0.0197863
558	0.0200164
570	0.0248479
582	0.025078
594	0.0239276
606	0.029296
618	0.0221637
630	0.0194795
642	0.0187126
654	0.0174089
666	0.019863
678	0.0224705
690	0.0236975
702	0.0330538
714	0.0246178
726	0.0230073
738	0.0205532
750	0.0257682
762	0.0336673
774	0.0567513
786	0.0946367
798	0.127614
810	0.180837
822	0.207449
834	0.18935
846	0.180531
858	0.161971
870	0.16734
882	0.165269
894	0.154302
906	0.154993
918	0.104913
930	0.0911089
942	0.106524
954	0.097551
966	0.161435
978	0.101386
990	0.131218
1002	0.151311
1014	0.153382
1026	0.165959
1038	0.106984
1050	0.071476
1062	0.0802188
1074	0.102229
1086	0.10384
1098	0.115957
1110	0.112736
1122	0.166419
1134	0.175392
1146	0.220947
1158	0.145483
1170	0.120788
1182	0.161971
1194	0.324863
1206	0.64106
1218	0.693823
1230	0.672197
1242	0.502633
1254	0.203615
1266	0.0783782
1278	0.0496958
1290	0.0474717
1302	0.123473
1314	0.164656
1326	0.158904
1338	0.155069
1350	0.0733933
1362	0.0348944
1374	0.038959
1386	0.0423334
1398	0.0463214
1410	0.0473183
1422	0.0426402
1434	0.0560611
1446	0.0786083
1458	0.133442
1470	0.109668
1482	0.0836699
1494	0.0592055
1506	0.0482386
1518	0.0464747
1530	0.0440973
1542	0.0384989
1554	0.0348177
1566	0.0433304
1578	0.0877345
1590	0.205455
1602	0.385066
1614	0.464287
1626	0.569431
1638	0.54512
1650	0.383455
1662	0.297484
1674	0.176159
1686	0.0807556
1698	0.040953
1710	0.0241577
1722	0.0233141
1734	0.0247712
1746	0.0246178
1758	0.0283757
1770	0.0266885
1782	0.0233141
1794	0.0228539
1806	0.017869
1818	0.0160284
1830	0.0154916
1842	0.0141111
1854	0.0169487
1866	0.0197096
1878	0.0220103
1890	0.0256148
1902	0.0251546
1914	0.024081
1926	0.0217802
1938	0.0204765
1950	0.0187893
1962	0.0185592
1974	0.0173322
1986	0.016872
1998	0.0187893
2010	0.0182525
2022	0.0193261
2034	0.0167186
2046	0.0162585
2058	0.0174855
2070	0.0197096
2082	0.0251546
2094	0.0308298
2106	0.0319801
2118	0.0304463
2130	0.0247712
2142	0.0181758
2154	0.017869
2166	0.0177156
2178	0.0174855
2190	0.0187893
2202	0.0194028
2214	0.0191727
2226	0.018866
2238	0.0164886
2250	0.0151081
2262	0.0141878
2274	0.0138044
2286	0.0134976
2298	0.0130375
2310	0.0129608
2322	0.0131909
2334	0.0125773
2346	0.0140345
2358	0.0125006
2370	0.0125006
2382	0.0144179
2394	0.0145713
2406	0.0144179
2418	0.0145713
2430	0.0150314
2442	0.0149547
2454	0.0161051
2466	0.0166419
2478	0.0171788
2490	0.0190194
2502	0.0194028
2514	0.0190961
2526	0.0203998
2538	0.0179457
2550	0.016872
2562	0.0171788
2574	0.0151081
2586	0.0152615
2598	0.0162585
2610	0.0163352
2622	0.0165653
2634	0.0163352
2646	0.0165653
2658	0.0162585
2670	0.0157983
2682	0.0154916
2694	0.0157983
2706	0.015645
2718	0.0157983
2730	0.0162585
2742	0.0163352
2754	0.0171021
2766	0.0181758
2778	0.0201697
2790	0.0233141
2802	0.0315967
2814	0.0520732
2826	0.0740835
2838	0.0983946
2850	0.107751
2862	0.100849
2874	0.102459
2886	0.086124
2898	0.0953269
2910	0.129301
2922	0.173092
2934	0.207986
2946	0.209827
2958	0.25331
2970	0.174932
2982	0.141572
2994	0.15898
3006	0.153612
3018	0.144486
3030	0.123242
3042	0.0727031
3054	0.0571348
3066	0.0564446
3078	0.0551408
3090	0.0510762
3102	0.054604
3114	0.0631934
3126	0.0555243
3138	0.0563679
3150	0.0478552
3162	0.0256148
3174	0.0206299
3186	0.0192494
3198	0.017869
3210	0.0176389
3222	0.0166419
3234	0.0165653
3246	0.0165653
3258	0.0161818
3270	0.0159517
3282	0.0148781
3294	0.0153382
3306	0.0154916
3318	0.015875
3330	0.0161818
3342	0.0151848
3354	0.0152615
3366	0.0144179
3378	0.0151081
3390	0.0151081
3402	0.0148781
3414	0.0148014
3426	0.0148781
3438	0.0142645
3450	0.014648
3462	0.0151081
3474	0.014648
3486	0.0148781
3498	0.0144179
3510	0.0148014
3522	0.014648
3534	0.0148014
3546	0.0145713
3558	0.0150314
3570	0.0144179
3582	0.0143412
3594	0.0161818
3606	0.0130375
3618	0.0148014
3630	0.0150314
3642	0.0151848
3654	0.0151081
3666	0.012654
3678	0.0174089
3690	0.0160284
3702	0.0151848
3714	0.014648
3726	0.0141111
3738	0.015645
3750	0.014648
3762	0.014648
3774	0.0144179
3786	0.0151081
3798	0.0164886
3810	0.0154149
3822	0.0151848
3834	0.015645
3846	0.014648
3858	0.0151848
3870	0.0160284
3882	0.0155683
3894	0.0164119
3906	0.015875
3918	0.0149547
3930	0.0160284
3942	0.0139578
3954	0.0154149
3966	0.0171788
