Infrared Spectrum: Ether, methyl vinyl
Formula: C3 H6 O
CAS: 107-25-5
State: GAS (100 mmHg, N2 ADDED, TOTAL PRESSURE 600 mmHg)
Class: COBLENTZ
Instrument: DOW KBr FOREPRISM-GRATING
Instrument parameters: GRATING CHANGED AT 5.0, 7.5, 15.0 MICRON
Sampling: TRANSMISSION
Path length: 5 CM
Resolution: 2
Origin: DOW CHEMICAL COMPANY
1/CM	TRANSMITTANCE
461	0.8353
470	0.8409
479	0.8423
488	0.8431
497	0.8429
506	0.8427
515	0.8419
524	0.8409
533	0.8393
542	0.8351
551	0.8313
560	0.8255
569	0.8096
578	0.7803
587	0.7945
596	0.7832
605	0.7861
614	0.8417
623	0.8582
632	0.8648
641	0.8634
650	0.8588
659	0.8516
668	0.8425
677	0.8266
686	0.7964
695	0.7663
704	0.7082
713	0.8142
722	0.8309
731	0.6293
740	0.8473
749	0.8429
758	0.8165
767	0.7536
776	0.6385
785	0.4479
794	0.2988
803	0.2287
812	0.1062
821	0.1471
830	0.1935
839	0.2403
848	0.355
857	0.4407
866	0.3684
875	0.2557
884	0.2407
893	0.2509
902	0.2189
911	0.387
920	0.5234
929	0.5517
938	0.4948
947	0.4924
956	0.4669
965	0.1207
974	0.4148
983	0.383
992	0.2725
1001	0.1967
1010	0.2827
1019	0.2422
1028	0.229
1037	0.4969
1046	0.4989
1055	0.4922
1064	0.5724
1073	0.6132
1082	0.6312
1091	0.6325
1100	0.6384
1109	0.692
1118	0.5481
1127	0.3951
1136	0.4337
1145	0.3278
1154	0.5392
1163	0.659
1172	0.5896
1181	0.4906
1190	0.3752
1199	0.0683
1208	0.0054
1217	0.008
1226	0.0103
1235	0.0098
1244	0.0996
1253	0.4066
1262	0.6712
1271	0.7762
1280	0.7963
1289	0.7898
1298	0.6901
1307	0.2554
1316	0.2169
1325	0.1457
1334	0.1911
1343	0.3514
1352	0.6441
1361	0.7842
1370	0.7576
1379	0.6952
1388	0.6839
1397	0.6821
1406	0.6994
1415	0.7367
1424	0.7303
1433	0.6537
1442	0.5439
1451	0.3311
1460	0.2116
1469	0.3298
1478	0.4478
1487	0.5029
1496	0.6475
1505	0.6701
1514	0.6859
1523	0.6806
1532	0.7344
1541	0.7851
1550	0.806
1559	0.8014
1568	0.7678
1577	0.6861
1586	0.4701
1595	0.0619
1604	0.0127
1613	0.0221
1622	0.0108
1631	0.0144
1640	0.0421
1649	0.05
1658	0.0409
1667	0.1217
1676	0.2326
1685	0.6191
1694	0.7341
1703	0.8077
1712	0.8271
1721	0.8321
1730	0.8303
1739	0.8216
1748	0.814
1757	0.8027
1766	0.7866
1775	0.7873
1784	0.7865
1793	0.7977
1802	0.8295
1811	0.8466
1820	0.8502
1829	0.855
1838	0.8603
1847	0.8596
1856	0.854
1865	0.8403
1874	0.8229
1883	0.7986
1892	0.7827
1901	0.7704
1910	0.7724
1919	0.794
1928	0.8073
1937	0.8235
1946	0.8346
1955	0.8399
1964	0.8487
1973	0.8543
1982	0.857
1991	0.8533
2000	0.8477
2009	0.8445
2018	0.844
2027	0.8498
2036	0.8564
2045	0.8579
2054	0.8576
2063	0.8532
2072	0.8423
2081	0.8229
2090	0.794
2099	0.7329
2108	0.7251
2117	0.7306
2126	0.7509
2135	0.8379
2144	0.8474
2153	0.8481
2162	0.8476
2171	0.8459
2180	0.8426
2189	0.8355
2198	0.8275
2207	0.8219
2216	0.8215
2225	0.8264
2234	0.8392
2243	0.8531
2252	0.8595
2261	0.8615
2270	0.8643
2279	0.8634
2288	0.8638
2297	0.8638
2306	0.8616
2315	0.8576
2324	0.8542
2333	0.8525
2342	0.8529
2351	0.8563
2360	0.8593
2369	0.8615
2378	0.8619
2387	0.8611
2396	0.8599
2405	0.8578
2414	0.8558
2423	0.8537
2432	0.8516
2441	0.851
2450	0.8511
2459	0.8512
2468	0.8501
2477	0.8449
2486	0.8375
2495	0.831
2504	0.8283
2513	0.8289
2522	0.8315
2531	0.8347
2540	0.8404
2549	0.8467
2558	0.8528
2567	0.858
2576	0.8583
2585	0.8538
2594	0.8504
2603	0.8482
2612	0.8478
2621	0.8482
2630	0.8488
2639	0.8494
2648	0.8502
2657	0.8522
2666	0.8543
2675	0.8569
2684	0.8586
2693	0.8593
2702	0.858
2711	0.8564
2720	0.8551
2729	0.8536
2738	0.8513
2747	0.8486
2756	0.8453
2765	0.8391
2774	0.8294
2783	0.8162
2792	0.7931
2801	0.7459
2810	0.641
2819	0.5359
2828	0.4928
2837	0.4028
2846	0.4081
2855	0.4195
2864	0.4296
2873	0.4835
2882	0.503
2891	0.4503
2900	0.3747
2909	0.2802
2918	0.1989
2927	0.1637
2936	0.1417
2945	0.1318
2954	0.118
2963	0.1804
2972	0.2991
2981	0.3501
2990	0.3454
2999	0.2412
3008	0.2799
3017	0.3042
3026	0.3783
3035	0.6177
3044	0.6546
3053	0.6419
3062	0.6118
3071	0.6151
3080	0.6388
3089	0.6523
3098	0.661
3107	0.5905
3116	0.578
3125	0.5692
3134	0.6136
3143	0.7756
3152	0.8155
3161	0.8412
3170	0.8492
3179	0.8516
3188	0.8539
3197	0.856
3206	0.8572
3215	0.8578
3224	0.8579
3233	0.8579
3242	0.8581
3251	0.8584
3260	0.8587
3269	0.8621
3278	0.8637
3287	0.8655
3296	0.8683
3305	0.8706
3314	0.8727
3323	0.8747
3332	0.8768
3341	0.8783
3350	0.8798
3359	0.8812
3368	0.8823
3377	0.8834
3386	0.8841
3395	0.8848
3404	0.8854
3413	0.8853
3422	0.8852
3431	0.8848
3440	0.8841
3449	0.8834
3458	0.8827
3467	0.8814
3476	0.8801
3485	0.8787
3494	0.8775
3503	0.8762
3512	0.875
3521	0.874
3530	0.873
3539	0.872
3548	0.871
3557	0.8694
3566	0.8679
3575	0.8661
3584	0.864
3593	0.8602
3602	0.8565
3611	0.8525
3620	0.848
3629	0.8431
3638	0.8404
3647	0.8392
3656	0.8402
3665	0.8396
3674	0.8384
3683	0.8412
3692	0.8479
3701	0.8563
3710	0.864
3719	0.8697
3728	0.8734
3737	0.8757
3746	0.8767
3755	0.8759
3764	0.8737
3773	0.8727
3782	0.874
3791	0.8773
