Infrared Spectrum: 1-Propene, 3-chloro-2-methyl-
Formula: C 4 H 7 Cl
CAS: 563-47-3
State: gas
Origin: Sadtler Research Labs Under US-EPA Contract
1/CM	ABSORBANCE
450	0.00882011
462	0.0111548
474	0.023503
486	0.038134
498	0.0463315
510	0.0198712
522	0.00887199
534	0.00575901
546	0.00378746
558	0.031493
570	0.0224135
582	0.0161356
594	0.00601843
606	0.00918329
618	0.011103
630	0.014631
642	0.0459165
654	0.132354
666	0.138891
678	0.0756973
690	0.013282
702	0.0158243
714	0.0361106
726	0.0880973
738	0.206546
750	0.365723
762	0.330702
774	0.12426
786	0.0626747
798	0.0467466
810	0.073155
822	0.088253
834	0.0711835
846	0.0469022
858	0.049652
870	0.0837392
882	0.152847
894	0.315812
906	0.51883
918	0.256613
930	0.102261
942	0.031908
954	0.0306629
966	0.0446194
978	0.0371482
990	0.0256821
1002	0.0186779
1014	0.0315967
1026	0.0293139
1038	0.0170695
1050	0.0102728
1062	0.00892388
1074	0.00809375
1086	0.00503265
1098	0.00565525
1110	0.00684856
1122	0.00415064
1134	0.00114143
1146	0.00726362
1158	0.0149942
1170	0.0188335
1182	0.0152017
1194	0.0119331
1206	0.0168101
1218	0.0384453
1230	0.0511048
1242	0.0950497
1254	0.222371
1266	0.203381
1278	0.114921
1290	0.0800555
1302	0.0810931
1314	0.0518311
1326	0.0343465
1338	0.0266679
1350	0.0244369
1362	0.0438411
1374	0.107294
1386	0.169346
1398	0.105893
1410	0.0660471
1422	0.0963467
1434	0.181072
1446	0.246133
1458	0.224913
1470	0.173601
1482	0.0749709
1494	0.0269273
1506	0.0147867
1518	0.0130226
1530	0.0119331
1542	0.0127113
1554	0.0148385
1566	0.0145272
1578	0.0150461
1590	0.0145272
1602	0.0159281
1614	0.0224653
1626	0.0399499
1638	0.0843618
1650	0.106671
1662	0.0792253
1674	0.0450344
1686	0.0157724
1698	0.0058109
1710	0.00617408
1722	0.00798998
1734	0.00757492
1746	0.0070042
1758	0.0058109
1770	0.00472135
1782	0.0076268
1794	0.0165507
1806	0.0320637
1818	0.0364219
1830	0.0269792
1842	0.0107398
1854	0.00451382
1866	0.00264603
1878	0.0030611
1890	0.00186779
1902	0.00140084
1914	0.00114143
1926	0.00129707
1938	0.00155649
1950	0.00238662
1962	0.00197155
1974	0.00108954
1986	0.00155649
1998	0.00129707
2010	0.000363181
2022	0.000622596
2034	0.00051883
2046	0.000674479
2058	0.00207532
2070	0.00316486
2082	0.00420252
2094	0.00482512
2106	0.00399499
2118	0.00357993
2130	0.00368369
2142	0.00316486
2154	0.0030611
2166	0.00321675
2178	0.00254227
2190	0.00316486
2202	0.00357993
2214	0.00321675
2226	0.00264603
2238	0.00207532
2250	0.00259415
2262	0.00202344
2274	0.00202344
2286	0.00176402
2298	0.00238662
2310	0.00321675
2322	0.00373558
2334	0.00415064
2346	0.00529207
2358	0.00238662
2370	0.00394311
2382	0.00332051
2394	0.00202344
2406	0.00316486
2418	0.00171214
2430	0.00160837
2442	0.00186779
2454	0.0021272
2466	0.00217909
2478	0.00217909
2490	0.00129707
2502	0.00150461
2514	0.000570713
2526	0.000311298
2538	0.000466947
2550	0.000726362
2562	0.00124519
2574	0.000207532
2586	0.00108954
2598	0.00119331
2610	0.00155649
2622	0.00254227
2634	0.00259415
2646	0.00269792
2658	0.004877
2670	0.00482512
2682	0.00430629
2694	0.00575901
2706	0.00638161
2718	0.00715985
2730	0.00918329
2742	0.0116737
2754	0.0121925
2766	0.00788622
2778	0.00721174
2790	0.00840505
2802	0.0117256
2814	0.015513
2826	0.0229323
2838	0.034606
2850	0.0573307
2862	0.0915216
2874	0.109162
2886	0.11601
2898	0.123533
2910	0.154819
2922	0.214225
2934	0.271348
2946	0.315916
2958	0.350988
2970	0.331999
2982	0.380614
2994	0.321363
3006	0.214225
3018	0.135
3030	0.0711316
3042	0.04877
3054	0.0426997
3066	0.0596654
3078	0.137801
3090	0.170488
3102	0.132042
3114	0.0496001
3126	0.0196118
3138	0.0112586
3150	0.00747115
3162	0.00690044
3174	0.00430629
3186	0.00503265
3198	0.00264603
3210	0.00352804
3222	0.00472135
3234	0.00326863
3246	0.00357993
3258	0.00326863
3270	0.00378746
3282	0.00435817
3294	0.00280168
3306	0.00472135
3318	0.00415064
3330	0.00295733
3342	0.00368369
3354	0.00326863
3366	0.00321675
3378	0.00524018
3390	0.00430629
3402	0.0054996
3414	0.00342428
3426	0.00238662
3438	0.00300921
3450	0.00337239
3462	0.00420252
3474	0.00342428
3486	0.00264603
3498	0.00383934
3510	0.00249038
3522	0.0030611
3534	0.00342428
3546	0.00217909
3558	0.0021272
3570	0.00316486
3582	0.00363181
3594	0.00332051
3606	0.00357993
3618	0.00290545
3630	0.00451382
3642	0.00389122
3654	0.00249038
3666	0.00332051
3678	0.00466947
3690	0.00202344
3702	0.0021272
3714	0.00451382
3726	0.00415064
3738	0.00280168
3750	0.00280168
3762	0.00524018
3774	0.00347616
3786	0.00394311
3798	0.00280168
3810	0.00373558
3822	0.00145272
3834	0.00264603
3846	0.00368369
3858	0.00285356
3870	0.00399499
3882	0.00389122
3894	0.00290545
3906	0.00435817
3918	0.0058109
3930	0.00653726
3942	0.00622596
3954	0.00415064
3966	0.00357993
