Infrared Spectrum: Acetic acid, methoxy-
Formula: C 3 H 6 O 3
CAS: 625-45-6
State: gas
Origin: Sadtler Research Labs Under US-EPA Contract
1/CM	ABSORBANCE
450	0.120283
462	0.133968
474	0.149685
486	0.156742
498	0.14744
510	0.122849
522	0.119427
534	0.110126
546	0.112692
558	0.118679
570	0.127339
582	0.153748
594	0.187641
606	0.22688
618	0.254144
630	0.266653
642	0.259383
654	0.207314
666	0.15193
678	0.105314
690	0.0739873
702	0.0539936
714	0.0377421
726	0.0297232
738	0.0213836
750	0.0132578
762	0.00876728
774	0
786	0.00577357
798	0.00384905
810	0.00684275
822	0.0118679
834	0.0268364
846	0.0439433
858	0.0538867
870	0.0499307
882	0.0361383
894	0.0259811
906	0.0310062
918	0.0533521
930	0.0826476
942	0.106597
954	0.0870313
966	0.0787986
978	0.0779432
990	0.083503
1002	0.0776225
1014	0.0713143
1026	0.0698175
1038	0.0735596
1050	0.0935532
1062	0.141666
1074	0.214157
1086	0.352188
1098	0.68481
1110	0.98001
1122	1.0586
1134	0.748961
1146	0.513848
1158	0.413773
1170	0.352295
1182	0.311345
1194	0.333691
1206	0.331767
1218	0.27232
1230	0.172031
1242	0.12317
1254	0.107773
1266	0.106811
1278	0.110446
1290	0.12349
1302	0.143591
1314	0.198974
1326	0.286433
1338	0.359031
1350	0.378062
1362	0.35005
1374	0.296804
1386	0.250937
1398	0.159949
1410	0.0919495
1422	0.0707797
1434	0.0641508
1446	0.082113
1458	0.0952639
1470	0.074308
1482	0.0467232
1494	0.0222389
1506	0.0174276
1518	0.0166792
1530	0.006522
1542	0.000748426
1554	0.00427672
1566	0.00545282
1578	0.00352829
1590	0.00620124
1602	0.00577357
1614	0.00513206
1626	0.00609433
1638	0.00363521
1650	0.0041698
1662	0.00727042
1674	0.00662892
1686	0.0102641
1698	0.0138993
1710	0.0261949
1722	0.0471508
1734	0.0679998
1746	0.130119
1758	0.254358
1770	0.508181
1782	0.756873
1794	0.94601
1806	0.928797
1818	0.806696
1830	0.453012
1842	0.147868
1854	0.0595533
1866	0.0310062
1878	0.0192452
1890	0.0116541
1902	0.00566665
1914	0.00331446
1926	0.00277987
1938	0.00256603
1950	0.0011761
1962	0.00277987
1974	0.00181761
1986	0.00245911
1998	0.00213836
2010	0.0029937
2022	0.00449056
2034	0.00374213
2046	0.00513206
2058	0.00481131
2070	0.00588049
2082	0.00684275
2094	0.00727042
2106	0.00609433
2118	0.0053459
2130	0.00449056
2142	0.00459747
2154	0.0041698
2166	0.00363521
2178	0.00288679
2190	0.00352829
2202	0.00342138
2214	0.00352829
2226	0.0029937
2238	0.00213836
2250	0.00171069
2262	0.000962262
2274	0.000748426
2286	0.000748426
2298	0.000641508
2310	0.000320754
2322	0.00053459
2334	0
2346	0
2358	0.000748426
2370	0
2382	0.00106918
2394	0.00171069
2406	0.00181761
2418	0.00213836
2430	0.0011761
2442	0.000641508
2454	0.000855344
2466	0.00149685
2478	0.00149685
2490	0.00160377
2502	0.00171069
2514	0.000962262
2526	0.000427672
2538	0.000213836
2550	0
2562	0.000320754
2574	0.000320754
2586	0.0011761
2598	0.00181761
2610	0.00224528
2622	0.00149685
2634	0.00171069
2646	0.00171069
2658	0.00267295
2670	0.00363521
2682	0.00374213
2694	0.00384905
2706	0.00374213
2718	0.00427672
2730	0.00513206
2742	0.00705659
2754	0.00962262
2766	0.013044
2778	0.0171069
2790	0.0225597
2802	0.0349622
2814	0.0645785
2826	0.112798
2838	0.152144
2850	0.143056
2862	0.116861
2874	0.117396
2886	0.141559
2898	0.165402
2910	0.183364
2922	0.207635
2934	0.233937
2946	0.230622
2958	0.189566
2970	0.142736
2982	0.111409
2994	0.121459
3006	0.126805
3018	0.103283
3030	0.0519621
3042	0.0331446
3054	0.0264087
3066	0.0232012
3078	0.0209559
3090	0.0186037
3102	0.0167861
3114	0.014327
3126	0.0124025
3138	0.0105849
3150	0.00887419
3162	0.00801885
3174	0.00791193
3186	0.00705659
3198	0.0076981
3210	0.00780501
3222	0.00759118
3234	0.0076981
3246	0.00705659
3258	0.00673583
3270	0.00609433
3282	0.00727042
3294	0.00673583
3306	0.00694967
3318	0.00598741
3330	0.00630816
3342	0.00609433
3354	0.00555974
3366	0.00705659
3378	0.00684275
3390	0.006522
3402	0.00737734
3414	0.00684275
3426	0.0076981
3438	0.00962262
3450	0.0125094
3462	0.018283
3474	0.0368867
3486	0.0919495
3498	0.159201
3510	0.169893
3522	0.1221
3534	0.0595533
3546	0.0505722
3558	0.0975092
3570	0.250509
3582	0.275955
3594	0.185182
3606	0.0350691
3618	0.0203144
3630	0.0177484
3642	0.00598741
3654	0.00588049
3666	0.00406288
3678	0.0116541
3690	0.00352829
3702	0.00866036
3714	0.0126163
3726	0.0146478
3738	0.0121887
3750	0.00502515
3762	0.00737734
3774	0.00673583
3786	0.00609433
3798	0.00694967
3810	0.00481131
3822	0.011761
3834	0.00620124
3846	0.0095157
3858	0.00791193
3870	0.00962262
3882	0.011761
3894	0.0121887
3906	0.0134717
3918	0.0141132
3930	0.0112264
3942	0.00866036
3954	0.00994337
3966	0.00898111
