Infrared Spectrum: Allylethylamine
Formula: C 5 H 11 N
CAS: 2424-02-4
State: gas
Instrument: HP-GC/MS/IRD
Origin: NIST Mass Spectrometry Data Center
1/CM	ABSORBANCE
550	0.0015045
562	0.0008895
574	0.0010215
586	0.001173
598	0.0012615
610	0.001596
622	0.0019635
634	0.0021525
646	0.0024495
658	0.002823
670	0.003204
682	0.003729
694	0.003924
706	0.0039975
718	0.0036525
730	0.003183
742	0.0024225
754	0.0016875
766	0.001059
778	0.000726
790	0.000429
802	0.0003615
814	0.000216
826	0.0001965
838	0.0001575
850	0.00018
862	0.000294
874	0.0006135
886	0.0013875
898	0.003078
910	0.005808
922	0.006642
934	0.004545
946	0.0026865
958	0.002184
970	0.002349
982	0.0032595
994	0.0036855
1006	0.0031965
1018	0.0019725
1030	0.001296
1042	0.0010665
1054	0.0013065
1066	0.0014685
1078	0.001731
1090	0.002178
1102	0.0036585
1114	0.0058545
1126	0.0081735
1138	0.009
1150	0.007596
1162	0.0044865
1174	0.002463
1186	0.001335
1198	0.0006825
1210	0.000519
1222	0.000531
1234	0.0006075
1246	0.000654
1258	0.000834
1270	0.001026
1282	0.0013005
1294	0.001515
1306	0.001905
1318	0.0025455
1330	0.0029685
1342	0.0029235
1354	0.0025845
1366	0.0027015
1378	0.003117
1390	0.0030735
1402	0.0024105
1414	0.002619
1426	0.00315
1438	0.004281
1450	0.0057555
1462	0.0054885
1474	0.003615
1486	0.0017325
1498	0.000822
1510	0.00036
1522	0.000186
1534	0.0001095
1546	5.25e-05
1558	5.25e-05
1570	5.7e-05
1582	3.75e-05
1594	0.0001035
1606	0.0002595
1618	0.00051
1630	0.0012
1642	0.0015765
1654	0.0012375
1666	0.000426
1678	0.0001635
1690	6.6e-05
1702	4.2e-05
1714	3e-06
1726	0
1738	1.35e-05
1750	1.65e-05
1762	5.25e-05
1774	6.6e-05
1786	6.45e-05
1798	8.55e-05
1810	0.0001725
1822	0.000411
1834	0.0006225
1846	0.000642
1858	0.0004035
1870	0.000171
1882	9.15e-05
1894	7.05e-05
1906	6.6e-05
1918	6.45e-05
1930	5.55e-05
1942	3.6e-05
1954	7.65e-05
1966	0.0001245
1978	0.0001215
1990	0.0001185
2002	8.25e-05
2014	6.9e-05
2026	8.1e-05
2038	4.95e-05
2050	6.45e-05
2062	6.75e-05
2074	6.75e-05
2086	9.15e-05
2098	8.4e-05
2110	0.0001095
2122	0.0001275
2134	0.0001695
2146	0.0001125
2158	0.0001035
2170	0.0001245
2182	0.0001125
2194	0.0001485
2206	0.0001605
2218	9.75e-05
2230	0.0001725
2242	0.0001185
2254	0.000156
2266	0.000159
2278	0.00018
2290	0.000126
2302	0.00012
2314	0.0001005
2326	0.0001245
2338	0.0001575
2350	0.000117
2362	0.0001215
2374	0.000162
2386	0.000123
2398	0.00015
2410	0.0001335
2422	0.000123
2434	0.0001545
2446	0.000123
2458	0.0001635
2470	0.0001155
2482	0.000144
2494	0.000162
2506	0.000129
2518	0.0001575
2530	0.0001935
2542	0.000186
2554	0.000243
2566	0.000276
2578	0.000315
2590	0.000378
2602	0.00045
2614	0.0005265
2626	0.000564
2638	0.000621
2650	0.0006495
2662	0.0007695
2674	0.000921
2686	0.0010845
2698	0.001236
2710	0.001404
2722	0.001608
2734	0.0018195
2746	0.002172
2758	0.002709
2770	0.0036345
2782	0.0051285
2794	0.00723
2806	0.0094935
2818	0.0110445
2830	0.011241
2842	0.010302
2854	0.0091275
2866	0.0088125
2878	0.009393
2890	0.0100395
2902	0.010398
2914	0.0108795
2926	0.011433
2938	0.011754
2950	0.012141
2962	0.0141075
2974	0.015
2986	0.012171
2998	0.007935
3010	0.005307
3022	0.00375
3034	0.002607
3046	0.0022035
3058	0.002397
3070	0.003063
3082	0.004155
3094	0.0038325
3106	0.00231
3118	0.0010785
3130	0.0006945
3142	0.0005235
3154	0.000414
3166	0.000438
3178	0.0003435
3190	0.0003345
3202	0.000261
3214	0.0002445
3226	0.000198
3238	0.0001845
3250	0.000249
3262	0.0001305
3274	0.000141
3286	0.0001275
3298	8.7e-05
3310	0.0001605
3322	0.0001725
3334	0.0001935
3346	0.0001725
3358	0.0001995
3370	0.00021
3382	0.0002385
3394	0.00018
3406	0.00015
3418	0.000156
3430	0.0002205
3442	0.000222
3454	0.000234
3466	0.000279
3478	0.000189
3490	0.0002325
3502	0.0001845
3514	0.0002175
3526	0.0001935
3538	0.000204
3550	0.0001485
3562	0.000189
3574	0.0001725
3586	0.0002295
3598	0.000225
3610	0.000192
3622	0.000252
3634	0.0002535
3646	0.000237
3658	0.00021
3670	0.0002535
3682	0.0002655
3694	0.00024
3706	0.0002085
3718	0.0002715
3730	0.0001815
3742	0.0003165
3754	0.0003255
3766	0.0002565
3778	0.0002415
3790	0.0002745
3802	0.0002745
3814	0.000246
3826	0.000276
3838	0.0002565
