Infrared Spectrum: Acetic acid, dichloro-
Formula: C 2 H 2 Cl 2 O 2
CAS: 79-43-6
State: gas
Origin: Sadtler Research Labs Under US-EPA Contract
1/CM	ABSORBANCE
450	0.0286832
462	0.0143792
474	0.0261988
486	0.0311676
498	0.0396747
510	0.0556349
522	0.0727996
534	0.129112
546	0.145298
558	0.0962882
570	0.0648948
582	0.0721221
594	0.145449
606	0.335466
618	0.229164
630	0.121659
642	0.143265
654	0.16314
666	0.14989
678	0.224422
690	0.313934
702	0.2254
714	0.123692
726	0.124821
738	0.0989985
750	0.0680567
762	0.0818337
774	0.0973422
786	0.082963
798	0.0969658
810	0.210946
822	0.29421
834	0.210042
846	0.0721221
858	0.0339531
870	0.0280056
882	0.0361363
894	0.0400511
906	0.033125
918	0.0164872
930	0.00150568
942	0.000677556
954	0.00075284
966	0.00391477
978	0.00782954
990	0.00880823
1002	0.0094105
1014	0.00993749
1026	0.00843181
1038	0.00873294
1050	0.0114432
1062	0.0185951
1074	0.0387713
1086	0.080855
1098	0.23451
1110	0.48114
1122	0.480538
1134	0.315064
1146	0.388616
1158	0.463147
1170	0.211021
1182	0.0795752
1194	0.0845439
1206	0.116163
1218	0.134758
1230	0.103967
1242	0.0711434
1254	0.0602272
1266	0.051419
1278	0.0529999
1290	0.0629374
1302	0.0745312
1314	0.100278
1326	0.146729
1338	0.165023
1350	0.145373
1362	0.120981
1374	0.104569
1386	0.0844686
1398	0.0414062
1410	0.0136264
1422	0.00858238
1434	0.00406534
1446	0.00414062
1458	0.00489346
1470	0.00391477
1482	0.00293608
1494	0.0033125
1506	0.00346306
1518	0.00399005
1530	0.00368892
1542	0.0042159
1554	0.00255966
1566	0.0037642
1578	0.00466761
1590	0.00361363
1602	0.00459232
1614	0.00489346
1626	0.00639914
1638	0.011669
1650	0.0121207
1662	0.00850709
1674	0.00828124
1686	0.0115937
1698	0.0121207
1710	0.0154332
1722	0.0245426
1734	0.0446434
1746	0.0855226
1758	0.155386
1770	0.319505
1782	0.601444
1794	0.75284
1806	0.615522
1818	0.429872
1830	0.257245
1842	0.113905
1854	0.0405781
1866	0.0181434
1878	0.0104645
1890	0.00639914
1902	0.00489346
1914	0.00361363
1926	0.00353835
1938	0.00286079
1950	0.00278551
1962	0.0033125
1974	0.0037642
1986	0.00361363
1998	0.00429119
2010	0.00549573
2022	0.00662499
2034	0.00549573
2046	0.00451704
2058	0.00368892
2070	0.00158096
2082	0.00075284
2094	0.000903408
2106	0.00037642
2118	0.000451704
2130	0.000150568
2142	0.00105398
2154	0.0018821
2166	0.00173153
2178	0.00248437
2190	0.00316193
2202	0.00481818
2214	0.00670028
2226	0.00670028
2238	0.00617329
2250	0.00654971
2262	0.00579687
2274	0.00767897
2286	0.0130241
2298	0.0229616
2310	0.0363622
2322	0.039223
2334	0.0408792
2346	0.0467514
2358	0.0213807
2370	0.0112173
2382	0.0127983
2394	0.000150568
2406	0.00338778
2418	0.00594744
2430	0.0075284
2442	0.00903408
2454	0.00925993
2466	0.00843181
2478	0.00888351
2490	0.00918465
2502	0.0102386
2514	0.0106903
2526	0.00956107
2538	0.0079801
2550	0.00775425
2562	0.00730255
2574	0.0070767
2586	0.00737783
2598	0.0079801
2610	0.00790482
2622	0.00843181
2634	0.00730255
2646	0.00782954
2658	0.0075284
2670	0.00639914
2682	0.00579687
2694	0.00587215
2706	0.00534516
2718	0.0056463
2730	0.00602272
2742	0.00602272
2754	0.00594744
2766	0.00617329
2778	0.00692613
2790	0.00594744
2802	0.006098
2814	0.00654971
2826	0.00677556
2838	0.00692613
2850	0.00730255
2862	0.00805539
2874	0.00865766
2886	0.0100128
2898	0.00933522
2910	0.0104645
2922	0.0112926
2934	0.012723
2946	0.012723
2958	0.0119702
2970	0.012723
2982	0.0136264
2994	0.0130994
3006	0.0161861
3018	0.0163366
3030	0.0159602
3042	0.0143792
3054	0.0130994
3066	0.010615
3078	0.0100881
3090	0.00971164
3102	0.0100881
3114	0.00993749
3126	0.00843181
3138	0.00971164
3150	0.00910936
3162	0.00948578
3174	0.00925993
3186	0.00843181
3198	0.00971164
3210	0.0094105
3222	0.0089588
3234	0.00993749
3246	0.00888351
3258	0.00843181
3270	0.00820596
3282	0.00594744
3294	0.0070767
3306	0.006098
3318	0.00670028
3330	0.00534516
3342	0.00436647
3354	0.00504403
3366	0.00451704
3378	0.00511931
3390	0.0056463
3402	0.00624857
3414	0.00474289
3426	0.00489346
3438	0.00557102
3450	0.00745312
3462	0.0070767
3474	0.0070767
3486	0.00617329
3498	0.00624857
3510	0.00767897
3522	0.0112926
3534	0.0208537
3546	0.0343295
3558	0.0662499
3570	0.267108
3582	0.454791
3594	0.287961
3606	0.0511931
3618	0.0110667
3630	0.00225852
3642	0.00075284
3654	0.00399005
3666	0.00323721
3678	0.00677556
3690	0.00165625
3702	0.000301136
3714	0.00278551
3726	0.00293608
3738	0.00180682
3750	0.00210795
3762	0.00240909
3774	0.000301136
3786	0.00323721
3798	0.0056463
3810	0.0014304
3822	0.00301136
3834	0.00617329
3846	0.00572158
3858	0.00685084
3870	0.0106903
3882	0.006098
3894	0.00225852
3906	0.00414062
3918	0.00361363
3930	0.00135511
3942	0.00444176
3954	0.00135511
3966	0.00346306
