Infrared Spectrum: 1,5-HEXADIENE
Formula: C6 H10
CAS: 592-42-7
State: SOLUTION (10% CCl4 FOR 3800-1340, 10% CS2 FOR 1340-400 CM^-^1)
Class: COBLENTZ III
Instrument: DOW KBr FOREPRISM-GRATING
Instrument parameters: BLAZED AT 3.5, 12.0, 20.0 MICRON AND CHANGED AT 5.0, 7.5, 14.9 MICRON
Sampling: TRANSMISSION
Path length: 0.011 CM, 0.010 CM
Resolution: 2
Origin: DOW CHEMICAL COMPANY
1/CM	TRANSMITTANCE
388	0.2951
397	0.3379
406	0.4771
415	0.6938
424	0.7365
433	0.7737
442	0.8051
451	0.8321
460	0.8573
469	0.8799
478	0.8896
487	0.8934
496	0.8944
505	0.8927
514	0.8884
523	0.8765
532	0.8587
541	0.8213
550	0.7583
559	0.7597
568	0.8408
577	0.8413
586	0.826
595	0.7961
604	0.7395
613	0.6955
622	0.6839
631	0.654
640	0.5884
649	0.5869
658	0.6525
667	0.6918
676	0.7284
685	0.7528
694	0.7864
703	0.8015
712	0.811
721	0.8154
730	0.8172
739	0.8221
748	0.8215
757	0.818
766	0.8099
775	0.7893
784	0.8019
793	0.8021
802	0.7958
811	0.79
820	0.784
829	0.7668
838	0.7569
847	0.7142
856	0.6465
865	0.6407
874	0.6403
883	0.6079
892	0.5318
901	0.2681
910	0.0034
919	0.0949
928	0.3548
937	0.5595
946	0.621
955	0.6469
964	0.6424
973	0.6101
982	0.3808
991	0.0517
1000	0.3119
1009	0.5809
1018	0.6584
1027	0.6995
1036	0.7225
1045	0.7386
1054	0.7547
1063	0.7455
1072	0.741
1081	0.7631
1090	0.7644
1099	0.7653
1108	0.7611
1117	0.7522
1126	0.7554
1135	0.7693
1144	0.7853
1153	0.7976
1162	0.8041
1171	0.8001
1180	0.793
1189	0.7948
1198	0.7888
1207	0.7698
1216	0.7775
1225	0.7908
1234	0.7758
1243	0.754
1252	0.7765
1261	0.7783
1270	0.7725
1279	0.7561
1288	0.7281
1297	0.7021
1306	0.7262
1315	0.733
1324	0.7106
1333	0.7411
1342	0.8252
1351	0.8278
1360	0.8299
1369	0.8306
1378	0.8282
1387	0.8165
1396	0.8143
1405	0.7803
1414	0.6624
1423	0.4768
1432	0.5675
1441	0.3809
1450	0.4204
1459	0.5642
1468	0.7458
1477	0.7869
1486	0.7896
1495	0.7734
1504	0.7435
1513	0.7015
1522	0.65
1531	0.5972
1540	0.548
1549	0.4565
1558	0.4627
1567	0.5409
1576	0.5995
1585	0.6131
1594	0.6651
1603	0.7365
1612	0.7522
1621	0.7465
1630	0.713
1639	0.2919
1648	0.3282
1657	0.7246
1666	0.7836
1675	0.8191
1684	0.8481
1693	0.8617
1702	0.8698
1711	0.8716
1720	0.8725
1729	0.8721
1738	0.8716
1747	0.8712
1756	0.8707
1765	0.8701
1774	0.8675
1783	0.864
1792	0.8536
1801	0.8327
1810	0.7968
1819	0.7155
1828	0.6546
1837	0.7319
1846	0.8032
1855	0.834
1864	0.8489
1873	0.8575
1882	0.859
1891	0.8598
1900	0.8595
1909	0.8616
1918	0.8662
1927	0.8684
1936	0.8673
1945	0.8661
1954	0.8621
1963	0.8549
1972	0.8421
1981	0.8278
1990	0.8449
1999	0.8544
2008	0.8561
2017	0.8558
2026	0.8553
2035	0.8548
2044	0.8541
2053	0.8544
2062	0.8617
2071	0.8624
2080	0.8628
2089	0.8628
2098	0.8627
2107	0.8621
2116	0.8618
2125	0.8618
2134	0.8624
2143	0.8621
2152	0.8616
2161	0.8604
2170	0.8593
2179	0.8581
2188	0.8566
2197	0.8548
2206	0.8531
2215	0.8509
2224	0.8486
2233	0.8462
2242	0.8439
2251	0.8416
2260	0.8394
2269	0.8371
2278	0.8348
2287	0.8347
2296	0.8394
2305	0.8463
2314	0.8563
2323	0.8636
2332	0.8646
2341	0.8643
2350	0.8635
2359	0.8621
2368	0.8601
2377	0.8563
2386	0.8534
2395	0.8514
2404	0.8504
2413	0.8506
2422	0.8517
2431	0.8528
2440	0.8539
2449	0.8547
2458	0.8556
2467	0.856
2476	0.8565
2485	0.8568
2494	0.8566
2503	0.8563
2512	0.8561
2521	0.8557
2530	0.8555
2539	0.8552
2548	0.8553
2557	0.8555
2566	0.8557
2575	0.8558
2584	0.8551
2593	0.8542
2602	0.8532
2611	0.8518
2620	0.8507
2629	0.8494
2638	0.8483
2647	0.8474
2656	0.8466
2665	0.8466
2674	0.8466
2683	0.8463
2692	0.8464
2701	0.847
2710	0.8471
2719	0.8468
2728	0.8453
2737	0.8427
2746	0.8397
2755	0.8365
2764	0.8325
2773	0.8265
2782	0.8202
2791	0.8136
2800	0.8032
2809	0.7891
2818	0.7595
2827	0.6537
2836	0.4751
2845	0.353
2854	0.4151
2863	0.4905
2872	0.5325
2881	0.5341
2890	0.4828
2899	0.3248
2908	0.2167
2917	0.1531
2926	0.1378
2935	0.1424
2944	0.2847
2953	0.4905
2962	0.4964
2971	0.4376
2980	0.2401
2989	0.1795
2998	0.3828
3007	0.3552
3016	0.5315
3025	0.7117
3034	0.7158
3043	0.7068
3052	0.6202
3061	0.4726
3070	0.3698
3079	0.2808
3088	0.1928
3097	0.582
3106	0.7554
3115	0.7958
3124	0.8165
3133	0.8275
3142	0.8332
3151	0.838
3160	0.8428
3169	0.8468
3178	0.8508
3187	0.8525
3196	0.8541
3205	0.8556
3214	0.8571
3223	0.8581
3232	0.8587
3241	0.8592
3250	0.8597
3259	0.8603
3268	0.8609
3277	0.8614
3286	0.8621
3295	0.8627
3304	0.8633
3313	0.8628
3322	0.8625
3331	0.8621
3340	0.8617
3349	0.8612
3358	0.8609
3367	0.8609
3376	0.861
3385	0.861
3394	0.8611
3403	0.8611
3412	0.8612
3421	0.8613
3430	0.8614
3439	0.8615
3448	0.8612
3457	0.8605
3466	0.86
3475	0.8594
3484	0.8593
3493	0.8592
3502	0.8592
3511	0.8601
3520	0.8611
3529	0.8621
3538	0.8631
3547	0.864
3556	0.865
3565	0.8659
3574	0.8664
3583	0.8667
3592	0.8667
3601	0.8665
3610	0.8665
3619	0.8665
3628	0.8665
3637	0.8665
3646	0.8666
3655	0.8666
3664	0.8668
3673	0.8668
3682	0.867
3691	0.8671
3700	0.8674
3709	0.8678
3718	0.8685
3727	0.8691
3736	0.8699
3745	0.8711
3754	0.8724
3763	0.8725
3772	0.8723
3781	0.8713
3790	0.8693
3799	0.8674
