Infrared Spectrum: 1,5-Hexadiene
Formula: C 6 H 10
CAS: 592-42-7
State: gas
Instrument: HP-GC/MS/IRD
Origin: NIST Mass Spectrometry Data Center
1/CM	ABSORBANCE
550	0.00205
562	0.001205
574	0.000885
586	0.001165
598	0.001585
610	0.0021
622	0.002565
634	0.00293
646	0.0032775
658	0.0029225
670	0.0023325
682	0.001785
694	0.001145
706	0.0007475
718	0.000405
730	0.0002025
742	2.25e-05
754	3.75e-05
766	7.5e-05
778	9.5e-05
790	0.000315
802	0.0006425
814	0.0007975
826	0.0011675
838	0.0015225
850	0.002015
862	0.0028725
874	0.004575
886	0.008175
898	0.015585
910	0.0238425
922	0.02386
934	0.0158175
946	0.009805
958	0.0073725
970	0.0080125
982	0.0107225
994	0.012075
1006	0.0096275
1018	0.006005
1030	0.0038375
1042	0.0025675
1054	0.0017725
1066	0.001265
1078	0.0011775
1090	0.0008975
1102	0.00089
1114	0.00099
1126	0.0009075
1138	0.0008
1150	0.0006275
1162	0.0004575
1174	0.0004275
1186	0.000425
1198	0.000535
1210	0.000655
1222	0.0006775
1234	0.000665
1246	0.0008
1258	0.000705
1270	0.0005175
1282	0.0006625
1294	0.00101
1306	0.001215
1318	0.001275
1330	0.001205
1342	0.001025
1354	0.00073
1366	0.000735
1378	0.0008425
1390	0.001225
1402	0.0020225
1414	0.00326
1426	0.004375
1438	0.005195
1450	0.0048175
1462	0.0033225
1474	0.00183
1486	0.0009575
1498	0.000565
1510	0.00052
1522	0.00053
1534	0.00055
1546	0.0005375
1558	0.0006
1570	0.00058
1582	0.00075
1594	0.0010875
1606	0.001875
1618	0.0038925
1630	0.00835
1642	0.0103075
1654	0.0076075
1666	0.0024825
1678	0.0010425
1690	0.0005225
1702	0.0003875
1714	0.000235
1726	0.000175
1738	0.0001675
1750	0.00017
1762	0.00017
1774	0.0002275
1786	0.0003175
1798	0.0005325
1810	0.0011175
1822	0.0024625
1834	0.0027925
1846	0.0020025
1858	0.00087
1870	0.00045
1882	0.000285
1894	0.0002
1906	0.000185
1918	0.0001425
1930	0.00013
1942	0.0001175
1954	0.00022
1966	0.00036
1978	0.0004025
1990	0.0003525
2002	0.0001975
2014	9.5e-05
2026	0.0001
2038	0.000105
2050	0.00013
2062	0.00014
2074	0.00011
2086	8e-05
2098	6e-05
2110	5.5e-05
2122	5e-05
2134	5.5e-05
2146	7e-05
2158	8.25e-05
2170	5.5e-05
2182	4.75e-05
2194	6.5e-05
2206	8e-05
2218	0.000105
2230	0.0001525
2242	0.0001275
2254	0.00015
2266	0.00017
2278	0.000125
2290	8e-05
2302	8.5e-05
2314	2e-05
2326	0.0001125
2338	8.25e-05
2350	3.75e-05
2362	8e-05
2374	7.75e-05
2386	5e-05
2398	4.25e-05
2410	4e-05
2422	2.5e-05
2434	0
2446	4.75e-05
2458	7e-05
2470	6.5e-05
2482	5e-05
2494	7.5e-05
2506	3e-05
2518	6e-05
2530	4.5e-05
2542	8.5e-05
2554	5.5e-05
2566	7e-05
2578	6.25e-05
2590	5.5e-05
2602	9.25e-05
2614	7.75e-05
2626	7.5e-05
2638	6.25e-05
2650	9e-05
2662	8.5e-05
2674	0.00014
2686	9.75e-05
2698	0.000185
2710	9.25e-05
2722	0.0001425
2734	0.0001725
2746	0.00023
2758	0.0003025
2770	0.0003525
2782	0.00038
2794	0.000485
2806	0.0007675
2818	0.0015325
2830	0.00304
2842	0.0050375
2854	0.00658
2866	0.00692
2878	0.0068
2890	0.0079875
2902	0.0121125
2914	0.01803
2926	0.0219325
2938	0.020665
2950	0.0156125
2962	0.011815
2974	0.011635
2986	0.0128625
2998	0.0137225
3010	0.0117425
3022	0.008405
3034	0.0055575
3046	0.005455
3058	0.00713
3070	0.0111825
3082	0.0162625
3094	0.0147475
3106	0.00714
3118	0.00291
3130	0.001445
3142	0.00093
3154	0.00069
3166	0.000515
3178	0.00042
3190	0.00027
3202	0.00021
3214	0.0001275
3226	0.000125
3238	9.5e-05
3250	0.0001225
3262	0.0001575
3274	0.0001825
3286	9.25e-05
3298	7.25e-05
3310	5.25e-05
3322	6.75e-05
3334	4.75e-05
3346	7.75e-05
3358	2.5e-05
3370	5e-05
3382	0.000125
3394	0.0001025
3406	9.75e-05
3418	0.00012
3430	0.0001
3442	9e-05
3454	9.75e-05
3466	0.0001325
3478	8.25e-05
3490	0.000155
3502	0.0001725
3514	0.000205
3526	8.5e-05
3538	0.000115
3550	0.0001575
3562	0.000135
3574	0.000105
3586	0.000195
3598	0.000125
3610	0.0001475
3622	0.000175
3634	0.0001125
3646	0.0001525
3658	0.0001725
3670	0.0001525
3682	0.0001775
3694	0.000205
3706	0.0001325
3718	0.000195
3730	0.000175
3742	0.000175
3754	0.000165
3766	0.000145
3778	0.0001
3790	6e-05
3802	0.0001525
3814	0.000135
3826	0.000205
3838	0.0001625
