Infrared Spectrum: Carbon monoxide
Formula: C O
CAS: 630-08-0
State: gas
Origin: Sadtler Research Labs Under US-EPA Contract
1/CM	ABSORBANCE
450	0.00892357
462	0.00715518
474	0.00473384
486	0.0054412
498	0.00623017
510	0.0045434
522	0.00623017
534	0.00756327
546	0.0031559
558	0.00470664
570	0.00555002
582	0.00737283
594	0.00652944
606	0.00753606
618	0.0045434
630	0.00399928
642	0.00519635
654	0.00701915
666	0.00870592
678	0.00647503
690	0.00481546
702	0.0063662
714	0.00397208
726	0.00571326
738	0.00457061
750	0.00421693
762	0.00617576
774	0.00465223
786	0.00560444
798	0.00631179
810	0.00481546
822	0.0049787
834	0.00584929
846	0.00519635
858	0.00448899
870	0.00476105
882	0.0049787
894	0.00538679
906	0.00470664
918	0.00476105
930	0.00522355
942	0.00438017
954	0.00495149
966	0.00427134
978	0.00486987
990	0.00440737
1002	0.00438017
1014	0.0040809
1026	0.00470664
1038	0.00440737
1050	0.00481546
1062	0.00457061
1074	0.0040809
1086	0.00467943
1098	0.00476105
1110	0.00405369
1122	0.00418972
1134	0.00399928
1146	0.00427134
1158	0.00383605
1170	0.00435296
1182	0.00399928
1194	0.00402649
1206	0.00359119
1218	0.0040809
1230	0.00389046
1242	0.00389046
1254	0.00432575
1266	0.00370002
1278	0.00389046
1290	0.00331913
1302	0.00301987
1314	0.0031831
1326	0.00402649
1338	0.00334634
1350	0.00353678
1362	0.00323751
1374	0.00342796
1386	0.00323751
1398	0.00269339
1410	0.00326472
1422	0.00383605
1434	0.00253016
1446	0.00282942
1458	0.00386325
1470	0.00291104
1482	0.0027206
1494	0.00359119
1506	0.00253016
1518	0.00233972
1530	0.00307428
1542	0.00280222
1554	0.00296545
1566	0.00285663
1578	0.00312869
1590	0.00269339
1602	0.00258457
1614	0.00296545
1626	0.00269339
1638	0.00269339
1650	0.00296545
1662	0.00253016
1674	0.00263898
1686	0.00323751
1698	0.00310148
1710	0.00212207
1722	0.00285663
1734	0.0031831
1746	0.00149633
1758	0.00253016
1770	0.00258457
1782	0.00201324
1794	0.00261178
1806	0.00263898
1818	0.00220369
1830	0.00223089
1842	0.00152354
1854	0.00168677
1866	0.00149633
1878	0.00174118
1890	0.00244854
1902	0.00193163
1914	0.0017956
1926	0.00250295
1938	0.00233972
1950	0.00204045
1962	0.00348237
1974	0.00323751
1986	0.00462502
1998	0.0101206
2010	0.0179015
2022	0.0284575
2034	0.0546841
2046	0.0676613
2058	0.0930989
2070	0.13769
2082	0.164923
2094	0.172078
2106	0.194577
2118	0.213404
2130	0.185327
2142	0.0645598
2154	0.176213
2166	0.236393
2178	0.27206
2190	0.252717
2202	0.209241
2214	0.154421
2226	0.0960916
2238	0.0532421
2250	0.0229347
2262	0.00606694
2274	0.00304707
2286	0.0022581
2298	0.00239413
2310	0.0036184
2322	0.00342796
2334	0.00195883
2346	0.0031831
2358	0.00307428
2370	0.00206766
2382	0.00253016
2394	0.000163236
2406	0.00111545
2418	0.00095221
2430	0.000217648
2442	0.00119706
2454	0.00095221
2466	0.000571326
2478	0.000870592
2490	0.000435296
2502	0.000353678
2514	0.000598532
2526	0.000870592
2538	0.000870592
2550	0.00100662
2562	0.000870592
2574	0.00125148
2586	0.00130589
2598	0.000897798
2610	0.00127868
2622	0.000925004
2634	0.000652944
2646	0.00155074
2658	0.000788974
2670	0.000897798
2682	0.000843386
2694	0.00130589
2706	0.000925004
2718	0.00119706
2730	0.00103383
2742	0.00106103
2754	0.00054412
2766	0.00103383
2778	0.00068015
2790	0.000380884
2802	0.00122427
2814	0.000897798
2826	0.000435296
2838	0.000925004
2850	0.00133309
2862	0.000707356
2874	0.000788974
2886	0.00116986
2898	0.00068015
2910	0.00103383
2922	0.00068015
2934	0.000897798
2946	0.00152354
2958	0.00125148
2970	0.000979416
2982	0.00106103
2994	0.00127868
3006	0.00100662
3018	0.00108824
3030	0.000788974
3042	0.00127868
3054	0.00138751
3066	0.00127868
3078	0.00149633
3090	0.00174118
3102	0.000788974
3114	0.000925004
3126	0.00130589
3138	0.00100662
3150	0.00130589
3162	0.00127868
3174	0.000489708
3186	0.00165957
3198	0.000571326
3210	0.000925004
3222	0.00068015
3234	0.000979416
3246	0.00133309
3258	0.00081618
3270	0.00100662
3282	0.00127868
3294	0.00119706
3306	0.00116986
3318	0.00157795
3330	0.00138751
3342	0.00204045
3354	0.00146912
3366	0.00190442
3378	0.00122427
3390	0.00209486
3402	0.00201324
3414	0.00106103
3426	0.00193163
3438	0.00106103
3450	0.00185001
3462	0.00081618
3474	0.00068015
3486	0.00160515
3498	0.000625738
3510	0.00209486
3522	0.00127868
3534	0.00111545
3546	0.0017956
3558	0.0013603
3570	0.00100662
3582	0.00190442
3594	0.00116986
3606	0.00108824
3618	0.00108824
3630	0.00209486
3642	0.00209486
3654	0.00138751
3666	0.00152354
3678	0.00157795
3690	0.0017956
3702	0.00206766
3714	0.00157795
3726	0.00171398
3738	0.00293825
3750	0.00168677
3762	0.00247575
3774	0.00176839
3786	0.00236692
3798	0.00163236
3810	0.00291104
3822	0.00204045
3834	0.00185001
3846	0.000516914
3858	0.0022853
3870	0.00144192
3882	0.00122427
3894	0.00212207
3906	0.00261178
3918	0.00198604
3930	0.00155074
3942	0.000380884
3954	0.00348237
3966	2.7206e-05
