Infrared Spectrum: Pyridine
Formula: C5 H5 N
CAS: 110-86-1
State: GAS (15 mmHg, N2 ADDED, TOTAL PRESSURE 600 mmHg)
Class: COBLENTZ
Instrument: DOW KBr FOREPRISM-GRATING
Instrument parameters: GRATING CHANGED AT 5.0, 7.5, 15.0 MICRON
Sampling: TRANSMISSION
Path length: 5 CM
Resolution: 2
Origin: DOW CHEMICAL COMPANY
1/CM	TRANSMITTANCE
460	0.8742
469	0.8795
478	0.8828
487	0.8839
496	0.8834
505	0.881
514	0.8786
523	0.8759
532	0.873
541	0.8711
550	0.8714
559	0.8746
568	0.8761
577	0.871
586	0.8549
595	0.8413
604	0.8359
613	0.8479
622	0.8774
631	0.8859
640	0.8847
649	0.8762
658	0.864
667	0.8403
676	0.7838
685	0.6069
694	0.658
703	0.4615
712	0.5847
721	0.6334
730	0.7272
739	0.821
748	0.7515
757	0.8108
766	0.8347
775	0.8649
784	0.8814
793	0.8842
802	0.8807
811	0.8723
820	0.8299
829	0.7695
838	0.7972
847	0.8243
856	0.8356
865	0.8423
874	0.846
883	0.8486
892	0.8549
901	0.8694
910	0.876
919	0.8764
928	0.8785
937	0.8815
946	0.8841
955	0.8859
964	0.8826
973	0.8651
982	0.8431
991	0.8357
1000	0.8355
1009	0.8476
1018	0.7965
1027	0.7767
1036	0.7491
1045	0.7591
1054	0.779
1063	0.7695
1072	0.7796
1081	0.7901
1090	0.8129
1099	0.8253
1108	0.8304
1117	0.8312
1126	0.8234
1135	0.8124
1144	0.8119
1153	0.8145
1162	0.8493
1171	0.8622
1180	0.8667
1189	0.873
1198	0.8681
1207	0.8537
1216	0.8554
1225	0.8572
1234	0.8732
1243	0.8779
1252	0.872
1261	0.8673
1270	0.877
1279	0.8805
1288	0.8798
1297	0.8787
1306	0.8777
1315	0.8766
1324	0.8758
1333	0.8748
1342	0.8717
1351	0.8574
1360	0.8497
1369	0.8576
1378	0.8773
1387	0.8924
1396	0.8724
1405	0.873
1414	0.8688
1423	0.8021
1432	0.6523
1441	0.6438
1450	0.6281
1459	0.7532
1468	0.8485
1477	0.8477
1486	0.847
1495	0.8525
1504	0.872
1513	0.8814
1522	0.88
1531	0.8777
1540	0.8794
1549	0.8766
1558	0.8627
1567	0.8028
1576	0.6459
1585	0.6019
1594	0.6557
1603	0.7796
1612	0.8094
1621	0.8557
1630	0.8558
1639	0.8577
1648	0.8658
1657	0.8707
1666	0.8704
1675	0.8703
1684	0.8695
1693	0.8692
1702	0.8696
1711	0.8708
1720	0.8717
1729	0.8714
1738	0.8714
1747	0.873
1756	0.8757
1765	0.8784
1774	0.8798
1783	0.8801
1792	0.8796
1801	0.8788
1810	0.8779
1819	0.8771
1828	0.8758
1837	0.8708
1846	0.8644
1855	0.8593
1864	0.8611
1873	0.8676
1882	0.8744
1891	0.8719
1900	0.8618
1909	0.8516
1918	0.8518
1927	0.8583
1936	0.8702
1945	0.8752
1954	0.8767
1963	0.8603
1972	0.8621
1981	0.8667
1990	0.8709
1999	0.8751
2008	0.8772
2017	0.8779
2026	0.8783
2035	0.8784
2044	0.879
2053	0.8792
2062	0.8794
2071	0.879
2080	0.8786
2089	0.8779
2098	0.8771
2107	0.8761
2116	0.8749
2125	0.8736
2134	0.8717
2143	0.8695
2152	0.867
2161	0.8647
2170	0.8632
2179	0.8638
2188	0.8705
2197	0.873
2206	0.8736
2215	0.8728
2224	0.8715
2233	0.8697
2242	0.8676
2251	0.8659
2260	0.8671
2269	0.8687
2278	0.871
2287	0.8732
2296	0.8756
2305	0.8779
2314	0.8783
2323	0.8749
2332	0.8717
2341	0.8718
2350	0.8734
2359	0.8769
2368	0.8803
2377	0.8805
2386	0.8802
2395	0.8799
2404	0.8797
2413	0.8793
2422	0.8789
2431	0.8785
2440	0.8781
2449	0.8774
2458	0.8768
2467	0.8762
2476	0.8758
2485	0.8752
2494	0.8748
2503	0.8747
2512	0.8746
2521	0.8744
2530	0.8743
2539	0.8742
2548	0.874
2557	0.874
2566	0.8741
2575	0.8743
2584	0.8744
2593	0.8746
2602	0.8747
2611	0.8749
2620	0.875
2629	0.8752
2638	0.8753
2647	0.8755
2656	0.8756
2665	0.8756
2674	0.8756
2683	0.8756
2692	0.8756
2701	0.8754
2710	0.8752
2719	0.875
2728	0.8749
2737	0.8746
2746	0.8743
2755	0.8739
2764	0.8735
2773	0.8731
2782	0.8724
2791	0.8713
2800	0.8703
2809	0.8695
2818	0.8688
2827	0.8668
2836	0.8644
2845	0.8614
2854	0.8633
2863	0.8706
2872	0.8731
2881	0.8718
2890	0.8675
2899	0.8593
2908	0.8488
2917	0.8434
2926	0.8476
2935	0.8527
2944	0.8558
2953	0.8581
2962	0.8595
2971	0.8597
2980	0.8478
2989	0.8096
2998	0.7747
3007	0.7619
3016	0.7101
3025	0.6853
3034	0.6584
3043	0.6562
3052	0.6919
3061	0.7123
3070	0.598
3079	0.5719
3088	0.5867
3097	0.6449
3106	0.8314
3115	0.8619
3124	0.867
3133	0.8663
3142	0.8653
3151	0.8641
3160	0.8647
3169	0.868
3178	0.8718
3187	0.8719
3196	0.8717
3205	0.8715
3214	0.8713
3223	0.8708
3232	0.8704
3241	0.8699
3250	0.8696
3259	0.8692
3268	0.8689
3277	0.8685
3286	0.8681
3295	0.8675
3304	0.8671
3313	0.8672
3322	0.8672
3331	0.8672
3340	0.8673
3349	0.8673
3358	0.8675
3367	0.8676
3376	0.8679
3385	0.8681
3394	0.8681
3403	0.8682
3412	0.8683
3421	0.8683
3430	0.8689
3439	0.8696
3448	0.8704
3457	0.871
3466	0.8714
3475	0.8717
3484	0.8721
3493	0.8722
3502	0.8724
3511	0.8726
3520	0.8729
3529	0.8733
3538	0.8739
3547	0.8743
3556	0.8749
3565	0.8753
3574	0.8748
3583	0.8742
3592	0.8736
3601	0.8727
3610	0.8717
3619	0.8706
3628	0.8696
3637	0.8691
3646	0.8687
3655	0.8683
3664	0.8686
3673	0.8691
3682	0.8697
3691	0.8697
3700	0.8692
3709	0.8677
3718	0.8663
3727	0.866
3736	0.867
3745	0.8676
3754	0.8676
3763	0.867
3772	0.8663
3781	0.8653
3790	0.8652
