Infrared Spectrum: PYRIDINE
Formula: C5 H5 N
CAS: 110-86-1
State: SOLUTION (10% IN CCl4 FOR 3800-1300, 10% IN CS2 FOR 1300-650, 10% IN CCl4 FOR 650-250 CM^-^1) VERSUS SOLVENT
Class: COBLENTZ III
Instrument: PERKIN-ELMER 521 (GRATING)
Instrument parameters: FILTERS AT 3150, 2500, 2000, 1150, 700, 410; GRATING CHANGES AT 2000, 630 CM^-^1
Sampling: TRANSMISSION
Path length: 0.012, 0.011, AND 0.010 CM (CsBr CELL)
Resolution: 4
Origin: DOW CORNING CORP.
1/CM	TRANSMITTANCE
243.279	0.886
253.115	0.887
262.951	0.89
272.787	0.904
282.623	0.911
292.459	0.927
302.295	0.932
312.132	0.931
321.968	0.955
331.804	0.965
341.64	0.966
351.476	0.97
361.312	0.974
371.148	0.971
380.984	0.971
390.82	0.936
400.656	0.662
410.492	0.752
420.328	0.934
430.165	0.936
440.001	0.931
449.837	0.914
459.673	0.894
469.509	0.907
479.345	0.906
489.181	0.904
499.017	0.9
508.853	0.898
518.689	0.894
528.525	0.896
538.361	0.896
548.198	0.899
558.034	0.902
567.87	0.906
577.706	0.903
587.542	0.876
597.378	0.6159
607.214	0.825
617.05	0.907
626.886	0.918
636.722	0.904
646.558	0.809
656.394	0.741
666.231	0.697
676.067	0.579
685.903	0.537
695.739	0.029
705.575	0.045
715.411	0.478
725.247	0.672
735.083	0.615
744.919	0.193
754.755	0.693
764.591	0.792
774.427	0.828
784.263	0.845
794.1	0.847
803.936	0.844
813.772	0.855
823.608	0.869
833.444	0.865
843.28	0.841
853.116	0.816
862.952	0.8
872.788	0.8
882.624	0.836
892.46	0.856
902.296	0.861
912.133	0.857
921.969	0.84
931.805	0.831
941.641	0.841
951.477	0.839
961.313	0.823
971.149	0.793
980.985	0.68
990.821	0.3391
1000.66	0.739
1010.49	0.725
1020.33	0.63
1030.17	0.328
1040	0.706
1049.84	0.725
1059.67	0.632
1069.51	0.5041
1079.35	0.718
1089.18	0.746
1099.02	0.749
1108.85	0.749
1118.69	0.746
1128.53	0.723
1138.36	0.5159
1148.2	0.686
1158.03	0.81
1167.87	0.823
1177.71	0.825
1187.54	0.805
1197.38	0.731
1207.21	0.607
1217.05	0.5561
1226.89	0.871
1236.72	0.891
1246.56	0.9
1256.4	0.914
1266.23	0.918
1276.07	0.914
1285.9	0.902
1295.74	0.918
1305.58	0.914
1315.41	0.914
1325.25	0.912
1335.08	0.9
1344.92	0.888
1354.76	0.865
1364.59	0.817
1374.43	0.878
1384.26	0.876
1394.1	0.851
1403.94	0.849
1413.77	0.823
1423.61	0.6969
1433.44	0.045
1443.28	0.3792
1453.12	0.784
1462.95	0.839
1472.79	0.75
1482.63	0.4812
1492.46	0.839
1502.3	0.869
1512.13	0.876
1521.97	0.878
1531.81	0.873
1541.64	0.861
1551.48	0.831
1561.31	0.726
1571.15	0.2649
1580.99	0.0641
1590.82	0.4739
1600.66	0.4772
1610.49	0.804
1620.33	0.824
1630.17	0.76
1640	0.831
1649.84	0.879
1659.67	0.886
1669.51	0.88
1679.35	0.831
1689.18	0.883
1699.02	0.898
1708.86	0.906
1718.69	0.894
1728.53	0.891
1738.36	0.88
1748.2	0.876
1758.04	0.892
1767.87	0.902
1777.71	0.906
1787.54	0.904
1797.38	0.89
1807.22	0.892
1817.05	0.89
1826.89	0.89
1836.72	0.895
1846.56	0.869
1856.4	0.808
1866.23	0.802
1876.07	0.86
1885.9	0.882
1895.74	0.88
1905.58	0.84
1915.41	0.73
1925.25	0.794
1935.09	0.865
1944.92	0.882
1954.76	0.879
1964.59	0.861
1974.43	0.813
1984.27	0.819
1994.1	0.875
2003.94	0.896
2013.77	0.9
2023.61	0.9001
2033.45	0.899
2043.28	0.9002
2053.12	0.906
2062.95	0.903
2072.79	0.904
2082.63	0.9042
2092.46	0.904
2102.3	0.907
2112.13	0.8989
2121.97	0.894
2131.81	0.894
2141.64	0.8908
2151.48	0.896
2161.31	0.898
2171.15	0.896
2180.99	0.8932
2190.82	0.8948
2200.66	0.8908
2210.5	0.8855
2220.33	0.891
2230.17	0.896
2240	0.8947
2249.84	0.891
2259.68	0.892
2269.51	0.891
2279.35	0.89
2289.18	0.8717
2299.02	0.8553
2308.86	0.892
2318.69	0.896
2328.53	0.892
2338.36	0.894
2348.2	0.892
2358.04	0.891
2367.87	0.8904
2377.71	0.895
2387.54	0.896
2397.38	0.892
2407.22	0.8906
2417.05	0.8891
2426.89	0.884
2436.73	0.888
2446.56	0.8835
2456.4	0.877
2466.23	0.889
2476.07	0.891
2485.91	0.8835
2495.74	0.89
2505.58	0.887
2515.41	0.89
2525.25	0.888
2535.09	0.8888
2544.92	0.892
2554.76	0.886
2564.59	0.886
2574.43	0.8876
2584.27	0.8887
2594.1	0.89
2603.94	0.88
2613.77	0.8854
2623.61	0.8813
2633.45	0.89
2643.28	0.8833
2653.12	0.883
2662.96	0.89
2672.79	0.8907
2682.63	0.888
2692.46	0.888
2702.3	0.8885
2712.14	0.891
2721.97	0.891
2731.81	0.891
2741.64	0.8935
2751.48	0.8942
2761.32	0.891
2771.15	0.8871
2780.99	0.884
2790.82	0.884
2800.66	0.891
2810.5	0.8846
2820.33	0.8737
2830.17	0.8667
2840	0.89
2849.84	0.89
2859.68	0.8841
2869.51	0.8841
2879.35	0.8859
2889.18	0.879
2899.02	0.867
2908.86	0.839
2918.69	0.852
2928.53	0.8469
2938.37	0.852
2948.2	0.8316
2958.04	0.8271
2967.87	0.8277
2977.71	0.8147
2987.55	0.7536
2997.38	0.6108
3007.22	0.4088
3017.05	0.6234
3026.89	0.3271
3036.73	0.3619
3046.56	0.5832
3056.4	0.4893
3066.23	0.5005
3076.07	0.296
3085.91	0.3039
3095.74	0.6698
3105.58	0.8239
3115.41	0.8479
3125.25	0.861
3135.09	0.862
3144.92	0.8356
3154.76	0.8535
3164.6	0.884
3174.43	0.8886
3184.27	0.894
3194.1	0.895
3203.94	0.896
3213.78	0.8993
3223.61	0.903
3233.45	0.906
3243.28	0.906
3253.12	0.906
3262.96	0.904
3272.79	0.903
3282.63	0.902
3292.46	0.899
3302.3	0.898
3312.14	0.896
3321.97	0.896
3331.81	0.895
3341.64	0.894
3351.48	0.892
3361.32	0.891
3371.15	0.891
3380.99	0.891
3390.83	0.89
3400.66	0.8916
3410.5	0.8916
3420.33	0.892
3430.17	0.8916
3440.01	0.894
3449.84	0.8946
3459.68	0.896
3469.51	0.898
3479.35	0.9
3489.19	0.899
3499.02	0.9
3508.86	0.9023
3518.69	0.9
3528.53	0.903
3538.37	0.908
3548.2	0.906
3558.04	0.906
3567.87	0.9073
3577.71	0.9135
3587.55	0.9125
3597.38	0.9085
3607.22	0.906
3617.05	0.907
3626.89	0.9032
3636.73	0.899
3646.56	0.894
3656.4	0.8912
3666.24	0.8792
3676.07	0.8816
3685.91	0.8975
3695.74	0.9021
3705.58	0.9018
3715.42	0.8953
3725.25	0.892
3735.09	0.8881
3744.92	0.8999
3754.76	0.907
3764.6	0.904
3774.43	0.907
3784.27	0.907
