Infrared Spectrum: Pyridine
Formula: C 5 H 5 N
CAS: 110-86-1
State: gas
Origin: Sadtler Research Labs Under US-EPA Contract
1/CM	ABSORBANCE
450	0.00639808
462	0.008746
474	0.0131484
486	0.0172572
498	0.0171985
510	0.0183725
522	0.0168463
534	0.016905
546	0.0221878
558	0.0157311
570	0.0214835
582	0.0427908
594	0.0509499
606	0.05365
618	0.0334579
630	0.00927428
642	0.0132657
654	0.0352775
666	0.124616
678	0.340977
690	0.270539
702	0.400966
714	0.336692
726	0.280576
738	0.0965582
750	0.0507151
762	0.0657418
774	0.0308164
786	0.00827642
798	0.00645678
810	0.00628069
822	0.00375667
834	0.00446105
846	0.00475454
858	0.00399146
870	0.00487193
882	0.00434365
894	0.00504803
906	0.00604589
918	0.00469584
930	0.00469584
942	0.00481324
954	0.00745465
966	0.0193703
978	0.0477215
990	0.0471932
1002	0.0632764
1014	0.0891036
1026	0.0912167
1038	0.0926841
1050	0.0530043
1062	0.0294664
1074	0.0243597
1086	0.0275881
1098	0.0114461
1110	0.00862861
1122	0.02119
1134	0.0407364
1146	0.0394451
1158	0.0403255
1170	0.0116222
1182	0.00845251
1194	0.0186073
1206	0.0428495
1218	0.0451975
1230	0.0427908
1242	0.0127962
1254	0.00563501
1266	0.00639808
1278	0.00686767
1290	0.00721985
1302	0.00645678
1314	0.00604589
1326	0.00757204
1338	0.0108004
1350	0.0138527
1362	0.0143223
1374	0.0161419
1386	0.0134418
1398	0.0115635
1410	0.0345731
1422	0.167641
1434	0.265139
1446	0.260971
1458	0.186366
1470	0.0463714
1482	0.0347492
1494	0.0332818
1506	0.0146158
1518	0.00669157
1530	0.0115048
1542	0.0207204
1554	0.0563501
1566	0.187892
1578	0.278405
1590	0.337161
1602	0.113346
1614	0.0624547
1626	0.0287033
1638	0.0239488
1650	0.0187834
1662	0.0125027
1674	0.0140875
1686	0.0142636
1698	0.013794
1710	0.00827642
1722	0.00909819
1734	0.0145571
1746	0.0122679
1758	0.0110939
1770	0.0089221
1782	0.00780683
1794	0.00997866
1806	0.00974387
1818	0.00968517
1830	0.0115635
1842	0.0189008
1854	0.0244771
1866	0.0254162
1878	0.0193703
1890	0.0159659
1902	0.0294077
1914	0.0333992
1926	0.0342796
1938	0.0201334
1950	0.0140288
1962	0.0207204
1974	0.0218944
1986	0.0193116
1998	0.0106243
2010	0.0059285
2022	0.00704376
2034	0.00680897
2046	0.00633938
2058	0.00569371
2070	0.0058698
2082	0.0059285
2094	0.00522412
2106	0.00481324
2118	0.00604589
2130	0.00716116
2142	0.00727855
2154	0.00675027
2166	0.00616329
2178	0.00675027
2190	0.00733725
2202	0.00798293
2214	0.00657418
2226	0.0059285
2238	0.00569371
2250	0.00692636
2262	0.00821772
2274	0.0112113
2286	0.010683
2298	0.00950908
2310	0.00540022
2322	0.00358058
2334	0.00475454
2346	0.00633938
2358	0.00510673
2370	0.0119157
2382	0.00915689
2394	0.00704376
2406	0.00757204
2418	0.00898079
2430	0.00950908
2442	0.00950908
2454	0.00786553
2466	0.00692636
2478	0.00739595
2490	0.00798293
2502	0.00810032
2514	0.00763074
2526	0.00763074
2538	0.00686767
2550	0.00686767
2562	0.00733725
2574	0.00851121
2586	0.00974387
2598	0.0103308
2610	0.0110352
2622	0.00939168
2634	0.0101548
2646	0.0100374
2658	0.00727855
2670	0.00862861
2682	0.00986126
2694	0.00745465
2706	0.0086873
2718	0.00763074
2730	0.00680897
2742	0.00639808
2754	0.00604589
2766	0.00639808
2778	0.00763074
2790	0.00839381
2802	0.00768944
2814	0.00851121
2826	0.00827642
2838	0.00692636
2850	0.00428495
2862	0.00252401
2874	0.00176094
2886	0.000528282
2898	0.00135005
2910	0.00328709
2922	0.00651548
2934	0.00939168
2946	0.00827642
2958	0.00698506
2970	0.00862861
2982	0.0216009
2994	0.0723746
3006	0.111644
3018	0.181905
3030	0.227103
3042	0.241484
3054	0.231094
3066	0.269306
3078	0.346788
3090	0.319082
3102	0.227279
3114	0.05365
3126	0.0123853
3138	0.0119157
3150	0.0129723
3162	0.0141462
3174	0.00903949
3186	0.00628069
3198	0.00610459
3210	0.00545891
3222	0.00657418
3234	0.00745465
3246	0.00651548
3258	0.00692636
3270	0.0059872
3282	0.00716116
3294	0.00551761
3306	0.00563501
3318	0.00692636
3330	0.00680897
3342	0.0058698
3354	0.00545891
3366	0.00633938
3378	0.0059285
3390	0.00469584
3402	0.0057524
3414	0.00604589
3426	0.00563501
3438	0.00804163
3450	0.00528282
3462	0.00540022
3474	0.00563501
3486	0.00510673
3498	0.00610459
3510	0.00645678
3522	0.00616329
3534	0.00657418
3546	0.00569371
3558	0.00645678
3570	0.00669157
3582	0.00610459
3594	0.00651548
3606	0.00633938
3618	0.0057524
3630	0.00610459
3642	0.00569371
3654	0.00704376
3666	0.00757204
3678	0.00851121
3690	0.00698506
3702	0.00540022
3714	0.00522412
3726	0.00551761
3738	0.00815902
3750	0.00839381
3762	0.00768944
3774	0.00504803
3786	0.00446105
3798	0.00628069
3810	0.00675027
3822	0.00639808
3834	0.00786553
3846	0.00721985
3858	0.00810032
3870	0.00909819
3882	0.00903949
3894	0.00933298
3906	0.00851121
3918	0.00798293
3930	0.00856991
3942	0.00757204
3954	0.00768944
3966	0.00815902
