Infrared Spectrum: PYRIDINE
Formula: C5 H5 N
CAS: 110-86-1
State: VAPOR (0.5 MICROLITER AT 150 C)
Boiling point: 116 C
Class: COBLENTZ
Instrument: NICOLET FTIR
Instrument parameters: Hg-Cd-Te DETECTOR - TYPE A, DEAD BELOW 680 CM^-^1, LOW S/N 710 - 680
Sampling: TRANSMISSION
Path length: 0.2 CM x 30 CM GOLD-PLATED LIGHT PIPE. HELIUM CARRIER. INTERFEROGRAMS CO-ADDED FOR FULL TRANSIT TIME.
Resolution: 4 CM^-^1
Origin: MONSANTO (JOHN J. FREEMAN)
1/CM	TRANSMITTANCE
702.317	0.359
711.586	0.3191
720.855	0.256
730.124	0.3599
739.394	0.5822
748.663	0.838
757.932	0.7661
767.201	0.8019
776.47	0.9329
785.739	0.982
795.009	0.99
804.278	0.995
813.547	0.977
822.816	0.993
832.085	0.992
841.354	0.99
850.624	0.993
859.893	0.994
869.162	0.994
878.431	0.995
887.7	0.996
896.969	0.996
906.239	0.997
915.508	0.996
924.777	0.997
934.046	0.996
943.315	0.998
952.584	0.993
961.854	0.963
971.123	0.882
980.392	0.824
989.661	0.827
998.93	0.8051
1008.2	0.767
1017.47	0.675
1026.74	0.692
1036.01	0.6861
1045.28	0.7329
1054.55	0.863
1063.81	0.857
1073.08	0.895
1082.35	0.8889
1091.62	0.964
1100.89	0.986
1110.16	0.977
1119.43	0.929
1128.7	0.852
1137.97	0.858
1147.24	0.844
1156.51	0.888
1165.78	0.97
1175.04	0.988
1184.31	0.977
1193.58	0.92
1202.85	0.843
1212.12	0.844
1221.39	0.848
1230.66	0.8889
1239.93	0.976
1249.2	0.992
1258.47	0.99
1267.74	0.987
1277.01	0.989
1286.27	0.989
1295.54	0.99
1304.81	0.995
1314.08	0.996
1323.35	0.992
1332.62	0.984
1341.89	0.966
1351.16	0.961
1360.43	0.963
1369.7	0.957
1378.97	0.964
1388.24	0.973
1397.5	0.961
1406.77	0.8881
1416.04	0.6622
1425.31	0.4121
1434.58	0.375
1443.85	0.381
1453.12	0.387
1462.39	0.7437
1471.66	0.856
1480.93	0.871
1490.2	0.855
1499.47	0.9408
1508.73	0.985
1518	0.997
1527.27	0.988
1536.54	0.981
1545.81	0.8981
1555.08	0.7321
1564.35	0.4461
1573.62	0.366
1582.89	0.275
1592.16	0.4738
1601.43	0.672
1610.7	0.7789
1619.96	0.895
1629.23	0.922
1638.5	0.932
1647.77	0.972
1657.04	0.972
1666.31	0.966
1675.58	0.966
1684.85	0.963
1694.12	0.982
1703.39	0.987
1712.66	0.989
1721.93	0.974
1731.19	0.969
1740.46	0.974
1749.73	0.974
1759	0.982
1768.27	0.994
1777.54	0.989
1786.81	0.987
1796.08	0.98
1805.35	0.976
1814.62	0.978
1823.89	0.977
1833.16	0.958
1842.42	0.927
1851.69	0.913
1860.96	0.913
1870.23	0.921
1879.5	0.95
1888.77	0.941
1898.04	0.893
1907.31	0.873
1916.58	0.876
1925.85	0.879
1935.12	0.933
1944.39	0.954
1953.65	0.936
1962.92	0.917
1972.19	0.921
1981.46	0.927
1990.73	0.956
2000	0.981
2009.27	0.987
2018.54	0.985
2027.81	0.987
2037.08	0.987
2046.35	0.989
2055.62	0.99
2064.88	0.993
2074.15	0.993
2083.42	0.9928
2092.69	0.9938
2101.96	0.9933
2111.23	0.9906
2120.5	0.9859
2129.77	0.985
2139.04	0.986
2148.31	0.987
2157.58	0.989
2166.85	0.99
2176.11	0.9885
2185.38	0.986
2194.65	0.982
2203.92	0.985
2213.19	0.987
2222.46	0.9874
2231.73	0.99
2241	0.9866
2250.27	0.9833
2259.54	0.9767
2268.81	0.9697
2278.08	0.9666
2287.34	0.9703
2296.61	0.9749
2305.88	0.9897
2315.15	1.0026
2324.42	1.0092
2333.69	1.01
2342.96	0.9996
2352.23	1.0113
2361.5	1.0127
2370.77	0.9999
2380.04	0.995
2389.31	0.993
2398.57	0.989
2407.84	0.987
2417.11	0.985
2426.38	0.984
2435.65	0.982
2444.92	0.9849
2454.19	0.9888
2463.46	0.99
2472.73	0.989
2482	0.9892
2491.27	0.9882
2500.54	0.9884
2509.8	0.9914
2519.07	0.992
2528.34	0.9907
2537.61	0.9913
2546.88	0.9908
2556.15	0.989
2565.42	0.987
2574.69	0.987
2583.96	0.9865
2593.23	0.985
2602.5	0.9815
2611.77	0.9828
2621.03	0.988
2630.3	0.988
2639.57	0.987
2648.84	0.987
2658.11	0.9893
2667.38	0.99
2676.65	0.99
2685.92	0.9905
2695.19	0.992
2704.46	0.9922
2713.73	0.993
2723	0.9942
2732.26	0.9951
2741.53	0.996
2750.8	0.9949
2760.07	0.9919
2769.34	0.988
2778.61	0.985
2787.88	0.984
2797.15	0.981
2806.42	0.9771
2815.69	0.976
2824.96	0.973
2834.23	0.972
2843.49	0.976
2852.76	0.9845
2862.03	0.9878
2871.3	0.988
2880.57	0.988
2889.84	0.9853
2899.11	0.9776
2908.38	0.9612
2917.65	0.9463
2926.92	0.9386
2936.19	0.9416
2945.46	0.9482
2954.72	0.9546
2963.99	0.9523
2973.26	0.9328
2982.53	0.8514
2991.8	0.7278
3001.07	0.6557
3010.34	0.5649
3019.61	0.45
3028.88	0.402
3038.15	0.4107
3047.42	0.3887
3056.69	0.4269
3065.95	0.3504
3075.22	0.2743
3084.49	0.3025
3093.76	0.3144
3103.03	0.6594
3112.3	0.8929
3121.57	0.9393
3130.84	0.9379
3140.11	0.936
3149.38	0.936
3158.65	0.9422
3167.92	0.9611
3177.18	0.968
3186.45	0.976
3195.72	0.978
3204.99	0.977
3214.26	0.977
3223.53	0.977
3232.8	0.977
3242.07	0.977
3251.34	0.9782
3260.61	0.9778
3269.88	0.981
3279.15	0.981
3288.41	0.982
3297.68	0.984
3306.95	0.985
3316.22	0.986
3325.49	0.986
3334.76	0.986
3344.03	0.987
3353.3	0.9874
3362.57	0.988
3371.84	0.989
3381.11	0.988
3390.38	0.9865
3399.64	0.985
3408.91	0.9864
3418.18	0.986
3427.45	0.988
3436.72	0.9893
3445.99	0.99
3455.26	0.988
3464.53	0.9937
3473.8	0.993
3483.07	0.993
3492.34	0.994
3501.61	0.9932
3510.87	0.994
3520.14	0.9951
3529.41	0.995
3538.68	0.995
3547.95	0.9959
3557.22	0.9962
3566.49	0.996
3575.76	0.995
3585.03	0.996
3594.3	0.9952
3603.57	0.998
3612.84	1.003
3622.1	0.998
3631.37	0.996
3640.64	0.9953
3649.91	0.989
3659.18	0.98
3668.45	0.9928
3677.72	0.984
3686.99	0.9904
3696.26	0.9967
3705.53	1.001
3714.8	0.9894
3724.07	0.982
3733.33	0.9852
3742.6	0.9881
3751.87	0.9926
3761.14	0.997
3770.41	0.996
3779.68	0.9955
3788.95	0.9945
3798.22	1.0014
3807.49	0.9944
3816.76	1.005
3826.03	0.997
3835.3	1.003
3844.56	0.9948
3853.83	0.9966
3863.1	1.0003
3872.37	1.0008
3881.64	0.9978
3890.91	0.9948
3900.18	1.002
3909.45	0.995
3918.72	0.996
3927.99	0.997
3937.26	0.994
3946.53	0.994
3955.79	0.993
3965.06	0.993
3974.33	0.992
3983.6	0.989
3992.87	0.9919
4002.14	0.9918
