Infrared Spectrum: Methane
Formula: C H 4
CAS: 74-82-8
State: gas
Origin: Sadtler Research Labs Under US-EPA Contract
1/CM	ABSORBANCE
450	0
462	0.0113429
474	0.00490675
486	0.00446068
498	0.00656357
510	0.00790178
522	0.00783805
534	0.00471558
546	0.00745571
558	0.00605378
570	0.00458813
582	0.00828412
594	0.00579888
606	0.0061175
618	0.00726454
630	0.00465185
642	0.00618123
654	0.0063724
666	0.0063724
678	0.0063724
690	0.00599006
702	0.00694592
714	0.00458813
726	0.00528909
738	0.0050342
750	0.00433323
762	0.00579888
774	0.00465185
786	0.00420578
798	0.00490675
810	0.00446068
822	0.00528909
834	0.00458813
846	0.0047793
858	0.00471558
870	0.00465185
882	0.0047793
894	0.0050342
906	0.00420578
918	0.00433323
930	0.00535282
942	0.00439696
954	0.0047793
966	0.0045244
978	0.00446068
990	0.00497047
1002	0.00497047
1014	0.00465185
1026	0.0047793
1038	0.00439696
1050	0.00433323
1062	0.00458813
1074	0.00414206
1086	0.00446068
1098	0.00490675
1110	0.0047793
1122	0.00541654
1134	0.00465185
1146	0.00414206
1158	0.00573516
1170	0.00579888
1182	0.00860274
1194	0.0129997
1206	0.00873019
1218	0.0182888
1230	0.0361315
1242	0.0360678
1254	0.0535282
1266	0.0595182
1278	0.0474107
1290	0.0478567
1302	0.201878
1314	0.00497047
1326	0.0377246
1338	0.0740473
1350	0.0688856
1362	0.0582437
1374	0.0468371
1386	0.0190535
1398	0.0095586
1410	0.00694592
1422	0.00528909
1434	0.00605378
1446	0.00579888
1458	0.00643612
1470	0.00535282
1482	0.00465185
1494	0.00541654
1506	0.00745571
1518	0.00618123
1530	0.00573516
1542	0.0111517
1554	0.0063724
1566	0.00528909
1578	0.00541654
1590	0.00439696
1602	0.0050342
1614	0.00497047
1626	0.0047793
1638	0.00573516
1650	0.00548026
1662	0.00471558
1674	0.00592633
1686	0.00599006
1698	0.0061175
1710	0.00528909
1722	0.00465185
1734	0.00624495
1746	0.00541654
1758	0.0047793
1770	0.00541654
1782	0.00490675
1794	0.00490675
1806	0.00490675
1818	0.00401461
1830	0.0050342
1842	0.00497047
1854	0.00388716
1866	0.0047793
1878	0.00433323
1890	0.00388716
1902	0.00433323
1914	0.00433323
1926	0.00395089
1938	0.00439696
1950	0.00420578
1962	0.00395089
1974	0.0045244
1986	0.00375972
1998	0.00420578
2010	0.00433323
2022	0.00369599
2034	0.00433323
2046	0.00426951
2058	0.00375972
2070	0.00439696
2082	0.00356854
2094	0.00363227
2106	0.00401461
2118	0.00375972
2130	0.00395089
2142	0.00433323
2154	0.00369599
2166	0.00414206
2178	0.00382344
2190	0.0031862
2202	0.00439696
2214	0.00382344
2226	0.00363227
2238	0.00446068
2250	0.00401461
2262	0.00375972
2274	0.00490675
2286	0.00458813
2298	0.00649985
2310	0.00790178
2322	0.00669102
2334	0.00707336
2346	0.00720081
2358	0.00592633
2370	0.0066273
2382	0.0047793
2394	0.00388716
2406	0.00465185
2418	0.00299503
2430	0.00401461
2442	0.0045244
2454	0.0034411
2466	0.00420578
2478	0.0045244
2490	0.00350482
2502	0.00433323
2514	0.00433323
2526	0.00363227
2538	0.00439696
2550	0.00388716
2562	0.00414206
2574	0.00497047
2586	0.0034411
2598	0.00465185
2610	0.00356854
2622	0.0029313
2634	0.0050342
2646	0.00471558
2658	0.00433323
2670	0.00656357
2682	0.00528909
2694	0.00465185
2706	0.00497047
2718	0.00414206
2730	0.00624495
2742	0.00873019
2754	0.00465185
2766	0.00535282
2778	0.00720081
2790	0.00790178
2802	0.00974977
2814	0.00911253
2826	0.0125536
2838	0.0103233
2850	0.00764688
2862	0.013382
2874	0.0324355
2886	0.0562046
2898	0.0674837
2910	0.0333914
2922	0.0141467
2934	0.0110243
2946	0.0306512
2958	0.080802
2970	0.0786991
2982	0.0352394
2994	0.0138281
3006	0.0933557
3018	0.63724
3030	0.0338374
3042	0.0184162
3054	0.0108331
3066	0.0407196
3078	0.0797187
3090	0.0268278
3102	0.035558
3114	0.0987085
3126	0.0475381
3138	0.0267004
3150	0.0579888
3162	0.0249161
3174	0.00573516
3186	0.0242151
3198	0.0131271
3210	0.0107056
3222	0.0223034
3234	0.0118527
3246	0.0125536
3258	0.0165045
3270	0.00739198
3282	0.0132546
3294	0.0168231
3306	0.0108331
3318	0.0186711
3330	0.0161859
3342	0.0115978
3354	0.0176515
3366	0.0135732
3378	0.0142742
3390	0.0191172
3402	0.01523
3414	0.0175241
3426	0.01848
3438	0.0136369
3450	0.0172692
3462	0.0183525
3474	0.0168869
3486	0.0211564
3498	0.0179702
3510	0.017078
3522	0.0212838
3534	0.0175241
3546	0.0180976
3558	0.0215387
3570	0.0182251
3582	0.0209015
3594	0.0219211
3606	0.0184162
3618	0.0209652
3630	0.0194995
3642	0.0197544
3654	0.0235142
3666	0.0216024
3678	0.0206466
3690	0.0238965
3702	0.0188623
3714	0.0216024
3726	0.0234504
3738	0.021475
3750	0.0253622
3762	0.0249798
3774	0.0219211
3786	0.0258082
3798	0.0229406
3810	0.0235779
3822	0.0274013
3834	0.0239602
3846	0.0272101
3858	0.028166
3870	0.0228132
3882	0.0259994
3894	0.0267641
3906	0.0235779
3918	0.0291219
3930	0.0284209
3942	0.0261906
3954	0.0295679
3966	0.0238965
