Infrared Spectrum: Thiocyanic acid, methyl ester
Formula: C 2 H 3 N S
CAS: 556-64-9
State: gas
Origin: Sadtler Research Labs Under US-EPA Contract
1/CM	ABSORBANCE
450	0
462	0.016838
474	0.0189908
486	0.0074195
498	0.0187217
510	0.0129937
522	0.00841902
534	0.0106487
546	0.0109178
558	0.0213743
570	0.0171071
582	0.0144546
594	0.0181067
606	0.0388659
618	0.0439788
630	0.0442094
642	0.0281403
654	0.0249111
666	0.0265257
678	0.0287554
690	0.0408649
702	0.0357135
714	0.0399038
726	0.0227198
738	0.0132628
750	0.0117636
762	0.0254877
774	0.0373666
786	0.0368284
798	0.0337914
810	0.0203748
822	0.01753
834	0.0284478
846	0.0240269
858	0.0183373
870	0.0160307
882	0.0199135
894	0.0261412
906	0.0301393
918	0.0329841
930	0.0355982
942	0.0494377
954	0.0817683
966	0.185065
978	0.229889
990	0.199096
1002	0.178875
1014	0.0848437
1026	0.0478231
1038	0.0399807
1050	0.0323306
1062	0.0297933
1074	0.0256415
1086	0.024642
1098	0.0215281
1110	0.0164536
1122	0.0174147
1134	0.0147237
1146	0.0148774
1158	0.0158001
1170	0.0209899
1182	0.039481
1194	0.0492455
1206	0.0351369
1218	0.0316001
1230	0.0264103
1242	0.0219125
1254	0.0232965
1266	0.0266794
1278	0.0352907
1290	0.050591
1302	0.0880729
1314	0.175031
1326	0.178568
1338	0.185487
1350	0.0785775
1362	0.0389428
1374	0.0352522
1386	0.0499759
1398	0.0786928
1410	0.143585
1422	0.220547
1434	0.343181
1446	0.277597
1458	0.235348
1470	0.144546
1482	0.0640845
1494	0.0454396
1506	0.0340989
1518	0.0345218
1530	0.0348294
1542	0.0399807
1554	0.0457087
1566	0.0439019
1578	0.0422489
1590	0.0358673
1602	0.0297164
1614	0.0189908
1626	0.0128784
1638	0.010764
1650	0.00676597
1662	0.00734261
1674	0.00353676
1686	0.0043825
1698	0.00399807
1710	0.00734261
1722	0.00695818
1734	0.0033061
1746	0.00638154
1758	0.00584334
1770	0.00680441
1782	0.00461316
1794	0.00515136
1806	0.00964919
1818	0.0113407
1830	0.00868812
1842	0.00864967
1854	0.008765
1866	0.008765
1878	0.00838057
1890	0.00838057
1902	0.00872656
1914	0.00811147
1926	0.00938009
1938	0.00922632
1950	0.00922632
1962	0.00930321
1974	0.00765016
1986	0.0079577
1998	0.00934165
2010	0.0084959
2022	0.008765
2034	0.00784237
2046	0.00872656
2058	0.00964919
2070	0.0118789
2082	0.0130706
2094	0.0107256
2106	0.00830369
2118	0.0104181
2130	0.0182989
2142	0.0746179
2154	0.229505
2166	0.272868
2178	0.295473
2190	0.108678
2202	0.00730417
2214	0.00657375
2226	0.00584334
2238	0.00611244
2250	0.00711195
2262	0.0066122
2274	0.0071504
2286	0.0133397
2298	0.013455
2310	0.0112638
2322	0.00964919
2334	0.00653531
2346	0.00841902
2358	0.00788081
2370	0.00388274
2382	0.00503603
2394	0.00549735
2406	0.00868812
2418	0.00684285
2430	0.00618932
2442	0.00422873
2454	0.00184526
2466	0.00142239
2478	0.000538202
2490	0.00188371
2502	0.00142239
2514	0.00211436
2526	0.00288322
2538	0.00626621
2550	0.0128784
2562	0.00968764
2574	0.00968764
2586	0.00826524
2598	0.00895722
2610	0.00953386
2622	0.00622777
2634	0.00580489
2646	0.00345987
2658	0.00272945
2670	0.00130706
2682	0.0010764
2694	0.00103796
2706	0.000961075
2718	0.00184526
2730	0.00246035
2742	0.00342143
2754	0.00430562
2766	0.00480537
2778	0.00572801
2790	0.00668908
2802	0.00914943
2814	0.0158001
2826	0.0337914
2838	0.0587793
2850	0.0753867
2862	0.0766553
2874	0.0593175
2886	0.044863
2898	0.0330225
2910	0.0389428
2922	0.0710427
2934	0.217587
2946	0.260067
2958	0.263296
2970	0.198327
2982	0.0543584
2994	0.04148
3006	0.0575876
3018	0.0666986
3030	0.0958
3042	0.0530898
3054	0.0369437
3066	0.0226814
3078	0.0132244
3090	0.0103027
3102	0.0106103
3114	0.0129553
3126	0.0140317
3138	0.0146852
3150	0.0143008
3162	0.0146852
3174	0.0129553
3186	0.0117251
3198	0.00968764
3210	0.00599711
3222	0.00461316
3234	0.00522825
3246	0.00515136
3258	0.00449783
3270	0.00488226
3282	0.00422873
3294	0.00403652
3306	0.00326765
3318	0.00376741
3330	0.00403652
3342	0.00265257
3354	0.0027679
3366	0.003037
3378	0.00265257
3390	0.00257568
3402	0.00326765
3414	0.00342143
3426	0.00288322
3438	0.00253724
3450	0.00246035
3462	0.00480537
3474	0.00457472
3486	0.00484382
3498	0.0043825
3510	0.00415184
3522	0.00472849
3534	0.00388274
3546	0.00545891
3558	0.00299855
3570	0.00595866
3582	0.00269101
3594	0.00169149
3606	0.00157616
3618	0.000961075
3630	0.00296011
3642	0.00246035
3654	0.00369053
3666	0.00226814
3678	0.00142239
3690	0.00296011
3702	0.00219125
3714	0.00265257
3726	0.00219125
3738	0.00319077
3750	0.0038443
3762	0.000461316
3774	0.000961075
3786	0.000461316
3798	0.00153772
3810	0.000461316
3822	0.000461316
3834	0.000461316
3846	0.000461316
3858	0.000345987
3870	0.000461316
3882	0.000461316
3894	0.000461316
3906	0.000884189
3918	0.00246035
3930	0.00284478
3942	0.00261412
3954	0.000461316
3966	0.000461316
