Infrared Spectrum: SULFONE, METHYL VINYL
Formula: C3 H6 O2 S
CAS: 3680-02-2
Class: COBLENTZ
Instrument: Not specified, most likely a prism, grating, or hybrid spectrometer.
Sampling: TRANSMISSION
Path length: 0.01 CM
Resolution: 4
Origin: TENNESSEE EASTMAN COMPANY, RESEARCH LABORATORIES
MICROMETERS	TRANSMITTANCE
2	0.949
2.04006	0.948
2.08011	0.948
2.12017	0.886
2.16023	0.908
2.20028	0.911
2.24034	0.71
2.2804	0.645
2.32045	0.695
2.36051	0.792
2.40057	0.844
2.44062	0.794
2.48068	0.747
2.52073	0.75
2.56079	0.673
2.60085	0.816
2.6409	0.852
2.68096	0.872
2.72102	0.849
2.76107	0.652
2.80113	0.602
2.84119	0.625
2.88124	0.757
2.9213	0.814
2.96136	0.811
3.00141	0.775
3.04147	0.754
3.08153	0.712
3.12158	0.638
3.16164	0.563
3.2017	0.434
3.24175	0.193
3.28181	0.078
3.32187	0.031
3.36192	0.08
3.40198	0.239
3.44203	0.088
3.48209	0.618
3.52215	0.61
3.5622	0.697
3.60226	0.785
3.64232	0.819
3.68237	0.822
3.72243	0.836
3.76249	0.841
3.80254	0.817
3.8426	0.653
3.88266	0.785
3.92271	0.832
3.96277	0.836
4.00283	0.849
4.04288	0.861
4.08294	0.871
4.123	0.764
4.16305	0.52
4.20311	0.685
4.24316	0.724
4.28322	0.744
4.32328	0.775
4.36333	0.663
4.40339	0.471
4.44345	0.521
4.4835	0.831
4.52356	0.867
4.56362	0.874
4.60367	0.877
4.64373	0.879
4.68379	0.807
4.72384	0.673
4.7639	0.714
4.80396	0.74
4.84401	0.809
4.88407	0.807
4.92413	0.794
4.96418	0.764
5.00424	0.702
5.0443	0.605
5.08435	0.525
5.12441	0.481
5.16446	0.483
5.20452	0.596
5.24458	0.719
5.28463	0.804
5.32469	0.854
5.36475	0.872
5.4048	0.889
5.44486	0.887
5.48492	0.867
5.52497	0.849
5.56503	0.861
5.60509	0.872
5.64514	0.867
5.6852	0.829
5.72526	0.789
5.76531	0.787
5.80537	0.812
5.84543	0.802
5.88548	0.797
5.92554	0.78
5.9656	0.76
6.00565	0.719
6.04571	0.655
6.08576	0.585
6.12582	0.516
6.16588	0.424
6.20593	0.178
6.24599	0.426
6.28605	0.505
6.3261	0.513
6.36616	0.575
6.40622	0.658
6.44627	0.729
6.48633	0.732
6.52639	0.752
6.56644	0.752
6.6065	0.749
6.64656	0.725
6.68661	0.702
6.72667	0.602
6.76673	0.501
6.80678	0.476
6.84684	0.505
6.88689	0.498
6.92695	0.419
6.96701	0.257
7.00706	0.091
7.04712	0.03
7.08718	0.008
7.12723	0.006
7.16729	0.006
7.20735	0.001
7.2474	0.001
7.28746	0.006
7.32752	0.02
7.36757	0.046
7.40763	0.056
7.44769	0.043
7.48774	0.02
7.5278	0.005
7.56786	0.001
7.60791	0.001
7.64797	0.001
7.68803	0.001
7.72808	0.001
7.76814	0.001
7.80819	0.001
7.84825	0
7.88831	0
7.92836	0
7.96842	0
8.00848	0
8.04853	0
8.08859	0.015
8.12865	0.076
8.1687	0.142
8.20876	0.187
8.24882	0.202
8.28887	0.202
8.32893	0.193
8.36899	0.192
8.40904	0.19
8.4491	0.162
8.48916	0.125
8.52921	0.081
8.56927	0.051
8.60933	0.03
8.64938	0.016
8.68944	0.008
8.72949	0.008
8.76955	0.008
8.80961	0.008
8.84966	0.008
8.88972	0.008
8.92978	0.01
8.96983	0.011
9.00989	0.021
9.04995	0.068
9.09	0.123
9.13006	0.173
9.17012	0.219
9.21017	0.257
9.25023	0.279
9.29029	0.301
9.33034	0.321
9.3704	0.327
9.41046	0.329
9.45051	0.331
9.49057	0.326
9.53062	0.302
9.57068	0.28
9.61074	0.239
9.65079	0.2
9.69085	0.15
9.73091	0.1
9.77096	0.065
9.81102	0.04
9.85108	0.033
9.89113	0.035
9.93119	0.03
9.97125	0.018
10.0113	0.013
10.0514	0.013
10.0914	0.011
10.1315	0.013
10.1715	0.01
10.2116	0.008
10.2516	0.008
10.2917	0.008
10.3318	0.008
10.3718	0.008
10.4119	0.008
10.4519	0.008
10.492	0.008
10.532	0.01
10.5721	0.01
10.6122	0.01
10.6522	0.015
10.6923	0.048
10.7323	0.103
10.7724	0.158
10.8124	0.224
10.8525	0.279
10.8925	0.324
10.9326	0.364
10.9727	0.399
11.0127	0.426
11.0528	0.449
11.0928	0.468
11.1329	0.5
11.1729	0.506
11.213	0.516
11.2531	0.528
11.2931	0.535
11.3332	0.551
11.3732	0.563
11.4133	0.571
11.4533	0.581
11.4934	0.586
11.5335	0.59
11.5735	0.59
11.6136	0.59
11.6536	0.588
11.6937	0.575
11.7337	0.56
11.7738	0.551
11.8138	0.538
11.8539	0.518
11.894	0.513
11.934	0.503
11.9741	0.488
12.0141	0.463
12.0542	0.443
12.0942	0.413
12.1343	0.377
12.1744	0.337
12.2144	0.301
12.2545	0.245
12.2945	0.188
12.3346	0.14
12.3746	0.083
12.4147	0.045
12.4548	0.023
12.4948	0.015
12.5349	0.011
12.5749	0.011
12.615	0.011
12.655	0.01
12.6951	0.01
12.7351	0.01
12.7752	0.01
12.8153	0.01
12.8553	0.008
12.8954	0.008
12.9354	0.008
12.9755	0.011
13.0155	0.028
13.0556	0.048
13.0957	0.076
13.1357	0.105
13.1758	0.148
13.2158	0.178
13.2559	0.212
13.2959	0.249
13.336	0.272
13.3761	0.299
13.4161	0.326
13.4562	0.347
13.4962	0.359
13.5363	0.374
13.5763	0.392
13.6164	0.401
13.6564	0.423
13.6965	0.431
13.7366	0.441
13.7766	0.448
13.8167	0.449
13.8567	0.446
13.8968	0.443
13.9368	0.439
13.9769	0.438
14.017	0.436
14.057	0.434
14.0971	0.421
14.1371	0.403
14.1772	0.381
14.2172	0.347
14.2573	0.322
14.2974	0.282
14.3374	0.237
14.3775	0.183
14.4175	0.14
14.4576	0.09
14.4976	0.063
14.5377	0.048
14.5777	0.043
14.6178	0.041
14.6579	0.041
14.6979	0.043
14.738	0.048
14.778	0.055
14.8181	0.065
14.8581	0.086
14.8982	0.122
14.9383	0.147
14.9783	0.177
15.0184	0.209
15.0584	0.229
15.0985	0.23
15.1385	0.232
15.1786	0.235
15.2187	0.242
15.2587	0.244
15.2988	0.244
15.3388	0.244
15.3789	0.242
15.4189	0.234
15.459	0.224
15.499	0.215
15.5391	0.209
15.5792	0.195
15.6192	0.19
15.6593	0.188
15.6993	0.187
15.7394	0.185
15.7794	0.185
15.8195	0.187
15.8596	0.195
15.8996	0.2
15.9397	0.205
15.9797	0.212
