Infrared Spectrum: 1-PROPENE, 2,3-DICHLORO-
Formula: C3 H4 Cl2
CAS: 78-88-6
State: LIQUID (NEAT)
Class: COBLENTZ III
Instrument: PERKIN-ELMER 521 (GRATING)
Instrument parameters: FILTERS AT 3150, 2500, 2000, 1150, 700, 410 AND GRATING CHANGES AT 2000, 630 CM^-^1
Sampling: TRANSMISSION
Path length: 0.0021 CM KBr CELL
Resolution: 4
Origin: STANDARD OIL OF OHIO
1/CM	TRANSMITTANCE
332.874	0.308
341.891	0.337
350.908	0.333
359.925	0.35
368.942	0.496
377.959	0.546
386.976	0.553
395.992	0.628
405.009	0.63
414.026	0.556
423.043	0.661
432.06	0.756
441.077	0.802
450.094	0.822
459.111	0.85
468.128	0.862
477.145	0.876
486.162	0.882
495.179	0.876
504.196	0.852
513.212	0.682
522.229	0.5756
531.246	0.8419
540.263	0.878
549.28	0.888
558.297	0.891
567.314	0.891
576.331	0.881
585.348	0.88
594.365	0.871
603.382	0.856
612.399	0.816
621.416	0.6582
630.433	0.1704
639.449	0.1809
648.466	0.5829
657.483	0.7
666.5	0.586
675.517	0.2071
684.534	0.162
693.551	0.191
702.568	0.5308
711.585	0.677
720.602	0.691
729.619	0.6061
738.636	0.1762
747.653	0.071
756.669	0.196
765.686	0.552
774.703	0.743
783.72	0.817
792.737	0.848
801.754	0.858
810.771	0.857
819.788	0.856
828.805	0.858
837.822	0.86
846.839	0.852
855.856	0.826
864.873	0.762
873.889	0.637
882.906	0.3333
891.923	0.055
900.94	0.056
909.957	0.167
918.974	0.4409
927.991	0.627
937.008	0.4021
946.025	0.713
955.042	0.815
964.059	0.847
973.076	0.853
982.093	0.853
991.11	0.858
1000.13	0.86
1009.14	0.86
1018.16	0.855
1027.18	0.852
1036.19	0.86
1045.21	0.861
1054.23	0.86
1063.24	0.853
1072.26	0.835
1081.28	0.783
1090.3	0.69
1099.31	0.64
1108.33	0.6
1117.35	0.377
1126.36	0.066
1135.38	0.412
1144.4	0.685
1153.41	0.762
1162.43	0.778
1171.45	0.742
1180.46	0.715
1189.48	0.635
1198.5	0.4012
1207.52	0.125
1216.53	0.567
1225.55	0.728
1234.57	0.738
1243.58	0.697
1252.6	0.4782
1261.62	0.136
1270.63	0.4509
1279.65	0.656
1288.67	0.702
1297.68	0.775
1306.7	0.788
1315.72	0.802
1324.74	0.801
1333.75	0.793
1342.77	0.783
1351.79	0.726
1360.8	0.671
1369.82	0.656
1378.84	0.487
1387.85	0.482
1396.87	0.665
1405.89	0.666
1414.9	0.56
1423.92	0.2959
1432.94	0.4669
1441.96	0.733
1450.97	0.815
1459.99	0.845
1469.01	0.852
1478.02	0.857
1487.04	0.86
1496.06	0.863
1505.07	0.863
1514.09	0.862
1523.11	0.861
1532.13	0.861
1541.14	0.863
1550.16	0.86
1559.18	0.856
1568.19	0.828
1577.21	0.792
1586.23	0.776
1595.24	0.741
1604.26	0.705
1613.28	0.616
1622.29	0.2962
1631.31	0.255
1640.33	0.3011
1649.35	0.5959
1658.36	0.761
1667.38	0.827
1676.4	0.848
1685.41	0.852
1694.43	0.856
1703.45	0.855
1712.46	0.851
1721.48	0.85
1730.5	0.855
1739.51	0.857
1748.53	0.858
1757.55	0.852
1766.57	0.843
1775.58	0.831
1784.6	0.795
1793.62	0.76
1802.63	0.747
1811.65	0.757
1820.67	0.777
1829.68	0.825
1838.7	0.848
1847.72	0.856
1856.73	0.867
1865.75	0.868
1874.77	0.868
1883.79	0.87
1892.8	0.871
1901.82	0.872
1910.84	0.875
1919.85	0.875
1928.87	0.873
1937.89	0.873
1946.9	0.873
1955.92	0.873
1964.94	0.873
1973.95	0.872
1982.97	0.871
1991.99	0.871
2001.01	0.8675
2010.02	0.867
2019.04	0.866
2028.06	0.866
2037.07	0.865
2046.09	0.865
2055.11	0.866
2064.12	0.866
2073.14	0.866
2082.16	0.867
2091.17	0.866
2100.19	0.865
2109.21	0.8641
2118.23	0.865
2127.24	0.865
2136.26	0.865
2145.28	0.865
2154.29	0.8651
2163.31	0.865
2172.33	0.865
2181.34	0.8642
2190.36	0.863
2199.38	0.863
2208.39	0.863
2217.41	0.863
2226.43	0.863
2235.45	0.8616
2244.46	0.86
2253.48	0.86
2262.5	0.858
2271.51	0.856
2280.53	0.856
2289.55	0.8527
2298.56	0.8512
2307.58	0.84
2316.6	0.8322
2325.61	0.828
2334.63	0.8352
2343.65	0.8506
2352.67	0.855
2361.68	0.8544
2370.7	0.855
2379.72	0.855
2388.73	0.855
2397.75	0.855
2406.77	0.855
2415.78	0.8557
2424.8	0.855
2433.82	0.856
2442.83	0.8535
2451.85	0.852
2460.87	0.8503
2469.89	0.8502
2478.9	0.852
2487.92	0.8518
2496.94	0.8486
2505.95	0.843
2514.97	0.843
2523.99	0.843
2533	0.843
2542.02	0.843
2551.04	0.8427
2560.05	0.8454
2569.07	0.85
2578.09	0.8502
2587.11	0.851
2596.12	0.851
2605.14	0.851
2614.16	0.847
2623.17	0.845
2632.19	0.843
2641.21	0.8463
2650.22	0.85
2659.24	0.848
2668.26	0.843
2677.27	0.84
2686.29	0.8328
2695.31	0.8306
2704.33	0.838
2713.34	0.84
2722.36	0.838
2731.38	0.838
2740.39	0.8369
2749.41	0.833
2758.43	0.8331
2767.44	0.836
2776.46	0.836
2785.48	0.836
2794.49	0.833
2803.51	0.8305
2812.53	0.8208
2821.55	0.8059
2830.56	0.7898
2839.58	0.78
2848.6	0.7921
2857.61	0.81
2866.63	0.813
2875.65	0.8125
2884.66	0.807
2893.68	0.801
2902.7	0.797
2911.71	0.7841
2920.73	0.7751
2929.75	0.7462
2938.77	0.6736
2947.78	0.6307
2956.8	0.5484
2965.82	0.6797
2974.83	0.726
2983.85	0.7266
2992.87	0.7221
3001.88	0.722
3010.9	0.725
3019.92	0.73
3028.93	0.73
3037.95	0.7482
3046.97	0.7597
3055.99	0.7638
3065	0.7698
3074.02	0.771
3083.04	0.772
3092.05	0.7692
3101.07	0.7613
3110.09	0.7493
3119.1	0.7529
3128.12	0.7757
3137.14	0.7809
3146.15	0.7857
3155.17	0.792
3164.19	0.7953
3173.21	0.797
3182.22	0.798
3191.24	0.798
3200.26	0.798
3209.27	0.8
3218.29	0.798
3227.31	0.7936
3236.32	0.7874
3245.34	0.7802
3254.36	0.7823
3263.37	0.7976
3272.39	0.7977
3281.41	0.7978
3290.43	0.8
3299.44	0.801
3308.46	0.8
3317.48	0.8
3326.49	0.8
3335.51	0.798
3344.53	0.796
3353.54	0.795
3362.56	0.7945
3371.58	0.793
3380.59	0.791
3389.61	0.7903
3398.63	0.79
3407.65	0.79
3416.66	0.79
3425.68	0.791
3434.7	0.791
3443.71	0.791
3452.73	0.791
3461.75	0.792
3470.76	0.793
3479.78	0.793
3488.8	0.792
3497.81	0.792
3506.83	0.795
3515.85	0.795
3524.87	0.793
3533.88	0.793
3542.9	0.793
3551.92	0.793
3560.93	0.7929
3569.95	0.792
3578.97	0.7909
3587.98	0.79
3597	0.7882
3606.02	0.7916
3615.03	0.7909
3624.05	0.788
3633.07	0.788
3642.09	0.788
3651.1	0.7879
3660.12	0.7854
3669.14	0.783
3678.15	0.783
3687.17	0.782
3696.19	0.782
3705.2	0.782
3714.22	0.7855
3723.24	0.786
3732.25	0.7855
3741.27	0.785
3750.29	0.785
3759.31	0.785
3768.32	0.785
3777.34	0.787
3786.36	0.787
3795.37	0.786
3804.39	0.785
3813.41	0.785
3822.42	0.783
3831.44	0.783
3840.46	0.782
3849.47	0.782
3858.49	0.782
3867.51	0.782
3876.53	0.783
3885.54	0.782
3894.56	0.782
3903.58	0.781
