Infrared Spectrum: 2,3-DICHLOROPROPENE
Formula: C3 H4 Cl2
CAS: 78-88-6
Class: COBLENTZ
Instrument: Not specified, most likely a prism, grating, or hybrid spectrometer.
Sampling: TRANSMISSION
Path length: 0.0025 CM
Resolution: 4
Origin: W.T. BOLLETER
MICROMETERS	TRANSMITTANCE
14.507	0.024
14.5769	0.026
14.6468	0.028
14.7168	0.028
14.7867	0.03
14.8566	0.032
14.9265	0.037
14.9964	0.051
15.0664	0.062
15.1363	0.074
15.2062	0.074
15.2761	0.065
15.346	0.056
15.416	0.046
15.4859	0.039
15.5558	0.032
15.6257	0.03
15.6956	0.028
15.7655	0.028
15.8355	0.028
15.9054	0.032
15.9753	0.04
16.0452	0.062
16.1151	0.112
16.1851	0.158
16.255	0.218
16.3249	0.297
16.3948	0.366
16.4647	0.412
16.5347	0.451
16.6046	0.492
16.6745	0.517
16.7444	0.548
16.8143	0.574
16.8843	0.613
16.9542	0.647
17.0241	0.683
17.094	0.704
17.1639	0.711
17.2339	0.713
17.3038	0.711
17.3737	0.706
17.4436	0.702
17.5135	0.713
17.5835	0.727
17.6534	0.747
17.7233	0.77
17.7932	0.786
17.8631	0.795
17.933	0.804
18.003	0.809
18.0729	0.813
18.1428	0.82
18.2127	0.818
18.2826	0.818
18.3526	0.814
18.4225	0.802
18.4924	0.788
18.5623	0.765
18.6322	0.731
18.7022	0.688
18.7721	0.654
18.842	0.597
18.9119	0.539
18.9818	0.489
19.0518	0.427
19.1217	0.346
19.1916	0.275
19.2615	0.186
19.3314	0.11
19.4014	0.062
19.4713	0.049
19.5412	0.051
19.6111	0.064
19.681	0.115
19.751	0.177
19.8209	0.27
19.8908	0.389
19.9607	0.469
20.0306	0.539
20.1005	0.596
20.1705	0.653
20.2404	0.697
20.3103	0.729
20.3802	0.75
20.4501	0.77
20.5201	0.782
20.59	0.797
20.6599	0.804
20.7298	0.809
20.7997	0.816
20.8697	0.816
20.9396	0.818
21.0095	0.82
21.0794	0.818
21.1493	0.816
21.2193	0.813
21.2892	0.814
21.3591	0.811
21.429	0.807
21.4989	0.802
21.5689	0.795
21.6388	0.79
21.7087	0.784
21.7786	0.779
21.8485	0.772
21.9185	0.768
21.9884	0.763
22.0583	0.759
22.1282	0.758
22.1981	0.756
22.268	0.756
22.338	0.758
22.4079	0.761
22.4778	0.761
22.5477	0.754
22.6176	0.752
22.6876	0.75
22.7575	0.74
22.8274	0.734
22.8973	0.717
22.9672	0.704
23.0372	0.679
23.1071	0.663
23.177	0.638
23.2469	0.603
23.3168	0.562
23.3868	0.528
23.4567	0.485
23.5266	0.427
23.5965	0.366
23.6664	0.318
23.7364	0.259
23.8063	0.204
23.8762	0.154
23.9461	0.124
24.016	0.103
24.086	0.096
24.1559	0.09
24.2258	0.09
24.2957	0.099
24.3656	0.11
24.4355	0.126
24.5055	0.156
24.5754	0.199
24.6453	0.245
24.7152	0.288
24.7851	0.323
24.8551	0.382
24.925	0.434
24.9949	0.464
25.0648	0.5
25.1347	0.519
25.2047	0.533
25.2746	0.549
25.3445	0.555
25.4144	0.553
25.4843	0.542
25.5543	0.514
25.6242	0.473
25.6941	0.423
25.764	0.366
25.8339	0.327
25.9039	0.298
25.9738	0.29
26.0437	0.306
26.1136	0.35
26.1835	0.4
26.2535	0.45
26.3234	0.501
26.3933	0.532
26.4632	0.567
26.5331	0.58
26.603	0.587
26.673	0.592
26.7429	0.596
26.8128	0.592
26.8827	0.583
26.9526	0.569
27.0226	0.549
27.0925	0.53
27.1624	0.494
27.2323	0.466
27.3022	0.418
27.3722	0.377
27.4421	0.339
27.512	0.282
27.5819	0.229
27.6518	0.172
27.7218	0.133
27.7917	0.101
27.8616	0.076
27.9315	0.062
28.0014	0.058
28.0714	0.062
28.1413	0.078
28.2112	0.115
28.2811	0.156
28.351	0.227
28.4209	0.3
28.4909	0.391
28.5608	0.475
28.6307	0.532
28.7006	0.592
28.7705	0.642
28.8405	0.702
28.9104	0.741
28.9803	0.775
29.0502	0.802
29.1201	0.82
29.1901	0.846
29.26	0.866
29.3299	0.877
29.3998	0.884
29.4697	0.898
29.5397	0.911
29.6096	0.916
29.6795	0.927
29.7494	0.932
29.8193	0.941
29.8893	0.946
29.9592	0.948
30.0291	0.951
30.099	0.955
30.1689	0.959
30.2389	0.964
30.3088	0.966
30.3787	0.971
30.4486	0.971
30.5185	0.973
30.5884	0.966
30.6584	0.964
30.7283	0.964
30.7982	0.964
30.8681	0.96
30.938	0.957
31.008	0.957
31.0779	0.951
31.1478	0.95
31.2177	0.948
31.2876	0.944
31.3576	0.943
31.4275	0.937
31.4974	0.935
31.5673	0.934
31.6372	0.93
31.7072	0.928
31.7771	0.923
31.847	0.918
31.9169	0.916
31.9868	0.911
32.0568	0.909
32.1267	0.911
32.1966	0.907
32.2665	0.905
32.3364	0.903
32.4064	0.902
32.4763	0.9
32.5462	0.9
32.6161	0.898
32.686	0.896
32.7559	0.896
32.8259	0.898
32.8958	0.9
32.9657	0.896
33.0356	0.893
33.1055	0.88
33.1755	0.862
33.2454	0.85
33.3153	0.85
33.3852	0.854
33.4551	0.859
33.5251	0.864
33.595	0.868
33.6649	0.862
33.7348	0.861
33.8047	0.859
33.8747	0.859
33.9446	0.859
34.0145	0.857
34.0844	0.859
34.1543	0.855
34.2243	0.848
34.2942	0.846
34.3641	0.846
34.434	0.845
34.5039	0.836
34.5739	0.827
34.6438	0.82
34.7137	0.814
34.7836	0.807
34.8535	0.804
34.9234	0.804
34.9934	0.802
35.0633	0.793
35.1332	0.784
35.2031	0.784
35.273	0.781
35.343	0.77
35.4129	0.763
35.4828	0.756
35.5527	0.749
35.6226	0.743
35.6926	0.733
35.7625	0.729
35.8324	0.72
35.9023	0.708
35.9722	0.701
36.0422	0.692
36.1121	0.688
36.182	0.677
36.2519	0.672
36.3218	0.669
36.3918	0.667
36.4617	0.663
36.5316	0.66
36.6015	0.656
36.6714	0.649
36.7414	0.64
36.8113	0.631
36.8812	0.626
36.9511	0.622
37.021	0.619
37.0909	0.613
37.1609	0.617
37.2308	0.608
37.3007	0.604
37.3706	0.603
37.4405	0.601
37.5105	0.599
37.5804	0.597
37.6503	0.597
37.7202	0.597
37.7901	0.597
37.8601	0.597
37.93	0.597
37.9999	0.599
