Infrared Spectrum: 2,3-Dichloropropene
Formula: C 3 H 4 Cl 2
CAS: 78-88-6
State: gas
Instrument: HP-GC/MS/IRD
Origin: NIST Mass Spectrometry Data Center
1/CM	ABSORBANCE
550	0.0003681
562	2.7e-06
574	0.0001692
586	0.0001377
598	0.0001107
610	0.0004572
622	0.0012834
634	0.0027576
646	0.0034326
658	0.0031194
670	0.0034722
682	0.0052677
694	0.0058842
706	0.0040869
718	0.0019206
730	0.0020016
742	0.0045603
754	0.0075645
766	0.0068265
778	0.0023769
790	0.000576
802	0.0003672
814	0.0003258
826	0.0003474
838	0.0004041
850	0.0005256
862	0.0012186
874	0.0032625
886	0.0058275
898	0.0083772
910	0.005373
922	0.0029952
934	0.0017163
946	0.0011421
958	0.0006219
970	0.0003654
982	0.0002934
994	0.0002421
1006	0.0002034
1018	0.0001836
1030	0.0002187
1042	0.0002178
1054	0.0002934
1066	0.0004167
1078	0.0005679
1090	0.0009252
1102	0.0014148
1114	0.0025947
1126	0.0053505
1138	0.0060633
1150	0.0032778
1162	0.0010629
1174	0.0008253
1186	0.0010584
1198	0.0018549
1210	0.0029376
1222	0.0027405
1234	0.0017001
1246	0.0016695
1258	0.0026658
1270	0.0029637
1282	0.0021735
1294	0.0011871
1306	0.0007218
1318	0.0005148
1330	0.0004833
1342	0.0005328
1354	0.0006255
1366	0.000792
1378	0.0012213
1390	0.0014031
1402	0.0013932
1414	0.0013383
1426	0.0016866
1438	0.0016308
1450	0.0012564
1462	0.0005679
1474	0.000279
1486	0.0001872
1498	0.0001701
1510	0.0001719
1522	0.0002394
1534	0.0002079
1546	0.0002223
1558	0.0003042
1570	0.0003564
1582	0.0005643
1594	0.0009207
1606	0.0018054
1618	0.0035046
1630	0.0047844
1642	0.0049986
1654	0.0030699
1666	0.0015066
1678	0.0005517
1690	0.0002529
1702	0.0001962
1714	0.000153
1726	0.0001377
1738	0.0001305
1750	0.0001395
1762	0.0002412
1774	0.0004095
1786	0.0006354
1798	0.0006687
1810	0.0004986
1822	0.000288
1834	0.0001782
1846	0.0001818
1858	0.0001404
1870	0.0001089
1882	0.0001026
1894	0.000126
1906	0.0001125
1918	0.0001233
1930	0.0001269
1942	0.0001089
1954	0.0001269
1966	7.29e-05
1978	0.0001116
1990	0.0001116
2002	0.0001386
2014	9.9e-05
2026	0.0001035
2038	0.0001098
2050	0.0001368
2062	0.0001287
2074	0.0001134
2086	0.000108
2098	0.0001143
2110	0.0001521
2122	0.0001179
2134	6.84e-05
2146	0.0001125
2158	0.0001134
2170	9.27e-05
2182	0.0001044
2194	0.000126
2206	0.000108
2218	8.55e-05
2230	0.0001134
2242	0.0001467
2254	0.0001485
2266	0.0001359
2278	0.0001278
2290	9.54e-05
2302	9.99e-05
2314	0.0001044
2326	0.0001332
2338	0.0001728
2350	0.0001809
2362	0.0001521
2374	0.0001116
2386	9.27e-05
2398	0.0001062
2410	9.18e-05
2422	9.36e-05
2434	0.0001179
2446	9.18e-05
2458	7.74e-05
2470	0.0001242
2482	9.99e-05
2494	8.64e-05
2506	7.56e-05
2518	0.0001161
2530	7.11e-05
2542	0.0001026
2554	6.66e-05
2566	7.02e-05
2578	6.3e-05
2590	7.65e-05
2602	0.0001098
2614	6.66e-05
2626	8.73e-05
2638	5.85e-05
2650	4.5e-05
2662	4.23e-05
2674	9.9e-06
2686	0.0001458
2698	9.72e-05
2710	0.0001251
2722	0.0001413
2734	9.81e-05
2746	0.0001278
2758	8.64e-05
2770	7.92e-05
2782	0.0001179
2794	0.0001404
2806	6.93e-05
2818	0.0001143
2830	0.0001458
2842	0.0002511
2854	0.0003033
2866	0.000288
2878	0.0002484
2890	0.0001494
2902	0.0001053
2914	0.0001782
2926	0.0002394
2938	0.0004563
2950	0.0009729
2962	0.0013482
2974	0.0013572
2986	0.0007983
2998	0.0004842
3010	0.0003843
3022	0.0003681
3034	0.000261
3046	0.0002169
3058	0.0001728
3070	0.0001314
3082	0.0001368
3094	0.0001296
3106	0.0001638
3118	0.0003141
3130	0.0002637
3142	0.0001116
3154	0.0001476
3166	6.48e-05
3178	7.74e-05
3190	6.21e-05
3202	7.38e-05
3214	7.11e-05
3226	0.0001242
3238	7.83e-05
3250	0.000126
3262	0.0001134
3274	0.0001125
3286	0.0001575
3298	0.0001008
3310	0.0001305
3322	3.33e-05
3334	6.66e-05
3346	2.61e-05
3358	0.0001431
3370	4.86e-05
3382	9.36e-05
3394	9.99e-05
3406	9.63e-05
3418	0.0001422
3430	9.63e-05
3442	0.0001134
3454	6.84e-05
3466	8.1e-05
3478	0.0001044
3490	5.94e-05
3502	0.0001305
3514	0.000117
3526	0.0001071
3538	0.0001314
3550	0.0001026
3562	0.0001305
3574	0.0001278
3586	0.0002043
3598	8.82e-05
3610	0.0001179
3622	0.0001512
3634	0.0001746
3646	0.0001206
3658	7.02e-05
3670	0.0002304
3682	0.0001584
3694	0.0001062
3706	0.0001971
3718	0.0001674
3730	0.0001188
3742	0.0001242
3754	0.0001629
3766	0.0001395
3778	0.0001872
3790	0.000135
3802	0.0001782
3814	0.000108
3826	0.0001818
3838	0.0001773
