Infrared Spectrum: 2-Pentanol
Formula: C 5 H 12 O
CAS: 6032-29-7
State: gas
Origin: Sadtler Research Labs Under US-EPA Contract
1/CM	ABSORBANCE
450	0.0175558
462	0.00785158
474	0.0411105
486	0.0437571
498	0.0409341
510	0.0410223
522	0.00635184
534	0.0127037
546	0.0104982
558	0.01041
570	0.0104982
582	0.0135859
594	0.0117333
606	0.0119979
618	0.0108511
630	0.0110275
642	0.00917488
654	0.00996886
666	0.0100571
678	0.0130566
690	0.0103217
702	0.0119979
714	0.0103217
726	0.00917488
738	0.018438
750	0.01685
762	0.0097042
774	0.0205553
786	0.0122626
798	0.0139388
810	0.0245252
822	0.0394343
834	0.0445511
846	0.0467566
858	0.0336118
870	0.0325532
882	0.0489621
894	0.0639595
906	0.0603425
918	0.0498443
930	0.0726933
942	0.102335
954	0.0921017
966	0.0597249
978	0.0503736
990	0.0745459
1002	0.110628
1014	0.142211
1026	0.143269
1038	0.12439
1050	0.107452
1062	0.122979
1074	0.155532
1086	0.168853
1098	0.160649
1110	0.14821
1122	0.169912
1134	0.206699
1146	0.204141
1158	0.145739
1170	0.0826621
1182	0.0523145
1194	0.0523145
1206	0.0681058
1218	0.0894551
1230	0.11548
1242	0.133653
1254	0.125625
1266	0.104982
1278	0.0810742
1290	0.063342
1302	0.051344
1314	0.0478152
1326	0.0546964
1338	0.0690763
1350	0.0884847
1362	0.126596
1374	0.194172
1386	0.216668
1398	0.161795
1410	0.0903373
1422	0.0563726
1434	0.0622833
1446	0.0902491
1458	0.118303
1470	0.108599
1482	0.07137
1494	0.0346705
1506	0.0156149
1518	0.0103217
1530	0.00846912
1542	0.00449922
1554	0.00670472
1566	0.0057343
1578	0.00458744
1590	0.004411
1602	0.00494032
1614	0.00291126
1626	0.00405812
1638	0.00141152
1650	0.0039699
1662	0.00379346
1674	0.00361702
1686	0.00167618
1698	0.00291126
1710	0.00291126
1722	0.0030877
1734	0.0030877
1746	0.00255838
1758	0.00238194
1770	0.00211728
1782	0.00229372
1794	0.0013233
1806	0.00141152
1818	0.00149974
1830	0.00158796
1842	0.00202906
1854	0.00211728
1866	0.0022055
1878	0.00194084
1890	0.00158796
1902	0.00061754
1914	0.00105864
1926	0.00114686
1938	0.00052932
1950	0.00158796
1962	0.0013233
1974	0.00105864
1986	0.00105864
1998	0.00061754
2010	0.00052932
2022	0.00061754
2034	0.00061754
2046	0.00114686
2058	0.00097042
2070	0.00105864
2082	0.00114686
2094	0.00123508
2106	0.00158796
2118	0.00123508
2130	0.00097042
2142	0.00097042
2154	0.0013233
2166	0.00149974
2178	0.00194084
2190	0.0022055
2202	0.00194084
2214	0.00194084
2226	0.00158796
2238	0.0008822
2250	0.00149974
2262	0.00141152
2274	0.0013233
2286	0.00149974
2298	0.00194084
2310	0.00255838
2322	0.00379346
2334	0.0039699
2346	0.00282304
2358	0.00344058
2370	0.00238194
2382	0.00141152
2394	0.0022055
2406	0.00299948
2418	0.00238194
2430	0.00185262
2442	0.00158796
2454	0.00185262
2466	0.00141152
2478	0.0017644
2490	0.00149974
2502	0.00123508
2514	0.00123508
2526	0.0013233
2538	0.00123508
2550	0.00123508
2562	0.00194084
2574	0.00361702
2586	0.004411
2598	0.00511676
2610	0.00652828
2622	0.00741048
2634	0.00855734
2646	0.01041
2658	0.0112922
2670	0.012439
2682	0.0121744
2694	0.0115568
2706	0.0112922
2718	0.0128801
2730	0.0155267
2742	0.0191437
2754	0.0194966
2766	0.018438
2778	0.0201142
2790	0.0239958
2802	0.0291126
2814	0.0381993
2826	0.0532849
2838	0.0851323
2850	0.1378
2862	0.211993
2874	0.339382
2886	0.414546
2898	0.404312
2910	0.41534
2922	0.524556
2934	0.614364
2946	0.610659
2958	0.69685
2970	0.875584
2982	0.727109
2994	0.321209
3006	0.0928074
3018	0.0392579
3030	0.0295537
3042	0.0253191
3054	0.0205553
3066	0.0165854
3078	0.0145563
3090	0.013233
3102	0.0111157
3114	0.00952776
3126	0.00714582
3138	0.00767514
3150	0.00811624
3162	0.00908666
3174	0.00899844
3186	0.00864556
3198	0.008822
3210	0.00688116
3222	0.00467566
3234	0.00335236
3246	0.00282304
3258	0.0022055
3270	0.00255838
3282	0.00149974
3294	0.00273482
3306	0.00282304
3318	0.00123508
3330	0.00061754
3342	0.0013233
3354	0.0017644
3366	0.00299948
3378	0.0030877
3390	0.0026466
3402	0.00379346
3414	0.00388168
3426	0.00494032
3438	0.00520498
3450	0.00511676
3462	0.00582252
3474	0.00458744
3486	0.0039699
3498	0.00458744
3510	0.00273482
3522	0.00317592
3534	0.00299948
3546	0.0035288
3558	0.00370524
3570	0.00405812
3582	0.00282304
3594	0.00414634
3606	0.00608718
3618	0.0136741
3630	0.0277893
3642	0.0517851
3654	0.078604
3666	0.0722522
3678	0.0298184
3690	0.00961598
3702	0.00652828
3714	0.00361702
3726	0.004411
3738	0.00070576
3750	0.0030877
3762	0.00070576
3774	0.0048521
3786	0.00555786
3798	0.00644006
3810	0.00555786
3822	0.00026466
3834	0.00414634
3846	0.00158796
3858	0.00494032
3870	0.00511676
3882	0.004411
3894	0.00405812
3906	0.00361702
3918	0.00114686
3930	0.0030877
3942	0.00202906
3954	0.00079398
3966	8.822e-05
