Infrared Spectrum: ACETIC ACID, MERCAPTO-, HYDRAZIDE
Formula: C2 H6 N2 O S
CAS: 760-30-5
State: SOLID (1 mg /650 mg KBr DISC)
Class: COBLENTZ III
Instrument: PERKIN-ELMER 21 (GRATING)
Instrument parameters: FILTER CHANGE AT ABOUT 1020 CM^-^1
Sampling: TRANSMISSION
Resolution: 2
Origin: SOUTHERN RESEARCH INSTITUTE
1/CM	TRANSMITTANCE
609.565	0.548
618.634	0.547
627.703	0.546
636.771	0.542
645.84	0.5354
654.909	0.5265
663.978	0.524
673.047	0.524
682.116	0.5256
691.184	0.5296
700.253	0.535
709.322	0.538
718.391	0.539
727.46	0.5482
736.528	0.5657
745.597	0.5886
754.666	0.602
763.735	0.6076
772.804	0.6253
781.873	0.6467
790.941	0.6641
800.01	0.679
809.079	0.688
818.148	0.6929
827.217	0.7017
836.285	0.707
845.354	0.71
854.423	0.709
863.492	0.7003
872.561	0.6934
881.629	0.6819
890.698	0.6649
899.767	0.6221
908.836	0.5788
917.905	0.5662
926.974	0.566
936.042	0.5875
945.111	0.612
954.18	0.612
963.249	0.5924
972.318	0.5677
981.386	0.5298
990.455	0.4609
999.524	0.4054
1008.59	0.3661
1017.66	0.378
1026.73	0.4118
1035.8	0.4767
1044.87	0.5629
1053.94	0.6351
1063.01	0.6546
1072.07	0.655
1081.14	0.6465
1090.21	0.6131
1099.28	0.5623
1108.35	0.5138
1117.42	0.5044
1126.49	0.5213
1135.56	0.5533
1144.63	0.5951
1153.69	0.616
1162.76	0.612
1171.83	0.5926
1180.9	0.5439
1189.97	0.524
1199.04	0.5554
1208.11	0.6011
1217.18	0.6102
1226.24	0.5919
1235.31	0.5314
1244.38	0.4811
1253.45	0.5231
1262.52	0.5568
1271.59	0.572
1280.66	0.57
1289.73	0.5635
1298.8	0.5492
1307.86	0.5184
1316.93	0.4531
1326	0.4044
1335.07	0.3914
1344.14	0.4294
1353.21	0.4837
1362.28	0.5435
1371.35	0.568
1380.41	0.568
1389.48	0.5503
1398.55	0.5032
1407.62	0.4952
1416.69	0.468
1425.76	0.465
1434.83	0.501
1443.9	0.5546
1452.96	0.563
1462.03	0.561
1471.1	0.553
1480.17	0.5326
1489.24	0.4894
1498.31	0.3895
1507.38	0.3017
1516.45	0.264
1525.52	0.2655
1534.58	0.2774
1543.65	0.3366
1552.72	0.3704
1561.79	0.389
1570.86	0.388
1579.93	0.3623
1589	0.3148
1598.07	0.2402
1607.13	0.1706
1616.2	0.139
1625.27	0.1216
1634.34	0.106
1643.41	0.0805
1652.48	0.0494
1661.55	0.0485
1670.62	0.0669
1679.69	0.0954
1688.75	0.1837
1697.82	0.3906
1706.89	0.4938
1715.96	0.5538
1725.03	0.5917
1734.1	0.6296
1743.17	0.6423
1752.24	0.651
1761.3	0.654
1770.37	0.658
1779.44	0.658
1788.51	0.661
1797.58	0.661
1806.65	0.661
1815.72	0.661
1824.79	0.661
1833.86	0.661
1842.92	0.661
1851.99	0.661
1861.06	0.661
1870.13	0.661
1879.2	0.659
1888.27	0.658
1897.34	0.657
1906.41	0.655
1915.47	0.654
1924.54	0.654
1933.61	0.654
1942.68	0.6539
1951.75	0.651
1960.82	0.65
1969.89	0.65
1978.96	0.649
1988.03	0.647
1997.09	0.646
2006.16	0.645
2015.23	0.644
2024.3	0.642
2033.37	0.641
2042.44	0.641
2051.51	0.641
2060.58	0.641
2069.64	0.64
2078.71	0.6385
2087.78	0.637
2096.85	0.6345
2105.92	0.634
2114.99	0.633
2124.06	0.632
2133.13	0.631
2142.19	0.629
2151.26	0.628
2160.33	0.625
2169.4	0.6202
2178.47	0.617
2187.54	0.616
2196.61	0.615
2205.68	0.615
2214.75	0.611
2223.81	0.6072
2232.88	0.606
2241.95	0.604
2251.02	0.603
2260.09	0.603
2269.16	0.5982
2278.23	0.5915
2287.3	0.584
2296.36	0.578
2305.43	0.571
2314.5	0.5655
2323.57	0.564
2332.64	0.561
2341.71	0.559
2350.78	0.5525
2359.85	0.554
2368.92	0.5502
2377.98	0.5432
2387.05	0.5382
2396.12	0.5342
2405.19	0.5252
2414.26	0.5185
2423.33	0.5122
2432.4	0.5042
2441.47	0.4965
2450.53	0.4885
2459.6	0.4782
2468.67	0.4692
2477.74	0.465
2486.81	0.464
2495.88	0.462
2504.95	0.462
2514.02	0.462
2523.09	0.465
2532.15	0.4738
2541.22	0.4888
2550.29	0.5073
2559.36	0.5298
2568.43	0.5388
2577.5	0.5405
2586.57	0.541
2595.64	0.539
2604.7	0.539
2613.77	0.539
2622.84	0.538
2631.91	0.538
2640.98	0.538
2650.05	0.538
2659.12	0.538
2668.19	0.535
2677.26	0.534
2686.32	0.534
2695.39	0.534
2704.46	0.531
2713.53	0.53
2722.6	0.526
2731.67	0.522
2740.74	0.5172
2749.81	0.513
2758.87	0.508
2767.94	0.5042
2777.01	0.499
2786.08	0.4855
2795.15	0.4692
2804.22	0.4552
2813.29	0.4442
2822.36	0.436
2831.42	0.4285
2840.49	0.425
2849.56	0.422
2858.63	0.422
2867.7	0.421
2876.77	0.419
2885.84	0.4115
2894.91	0.4042
2903.98	0.3962
2913.04	0.3895
2922.11	0.384
2931.18	0.383
2940.25	0.379
2949.32	0.372
2958.39	0.3662
2967.46	0.3555
2976.53	0.3405
2985.59	0.3282
2994.66	0.3192
3003.73	0.3087
3012.8	0.3012
3021.87	0.299
3030.94	0.299
3040.01	0.302
3049.08	0.3175
3058.15	0.32
3067.21	0.32
3076.28	0.32
3085.35	0.318
3094.42	0.3102
3103.49	0.2982
3112.56	0.2892
3121.63	0.2762
3130.7	0.2625
3139.76	0.2505
3148.83	0.2295
3157.9	0.206
3166.97	0.1805
3176.04	0.1592
3185.11	0.1462
3194.18	0.1365
3203.25	0.13
3212.32	0.1252
3221.38	0.1197
3230.45	0.1057
3239.52	0.105
3248.59	0.104
3257.66	0.104
3266.73	0.105
3275.8	0.108
3284.87	0.1115
3293.93	0.1155
3303	0.119
3312.07	0.1285
3321.14	0.1605
3330.21	0.1905
3339.28	0.2288
3348.35	0.2471
3357.42	0.26
3366.49	0.2768
3375.55	0.2938
3384.62	0.3058
3393.69	0.3148
3402.76	0.3278
3411.83	0.336
3420.9	0.3495
3429.97	0.354
3439.04	0.361
3448.1	0.363
3457.17	0.365
3466.24	0.367
3475.31	0.3695
3484.38	0.371
3493.45	0.374
3502.52	0.3775
3511.59	0.3798
3520.66	0.3838
3529.72	0.387
3538.79	0.391
3547.86	0.395
3556.93	0.397
3566	0.4008
3575.07	0.404
3584.14	0.406
3593.21	0.41
3602.27	0.4138
3611.34	0.418
3620.41	0.421
3629.48	0.423
3638.55	0.425
3647.62	0.425
3656.69	0.426
3665.76	0.426
3674.82	0.426
3683.89	0.4268
3692.96	0.427
3702.03	0.427
3711.1	0.426
3720.17	0.426
3729.24	0.426
3738.31	0.426
3747.38	0.426
3756.44	0.426
3765.51	0.426
3774.58	0.425
3783.65	0.425
3792.72	0.425
3801.79	0.425
3810.86	0.423
3819.93	0.422
3828.99	0.4195
3838.06	0.421
3847.13	0.421
3856.2	0.421
3865.27	0.421
3874.34	0.419
3883.41	0.421
3892.48	0.419
3901.55	0.419
3910.61	0.418
3919.68	0.418
3928.75	0.418
3937.82	0.4172
3946.89	0.414
3955.96	0.413
3965.03	0.413
3974.1	0.414
3983.16	0.411
3992.23	0.411
4001.3	0.4108
