Infrared Spectrum: Chloroiodomethane
Formula: C H 2 Cl I
CAS: 593-71-5
State: gas
Instrument: HP-GC/MS/IRD
Origin: NIST Mass Spectrometry Data Center
1/CM	ABSORBANCE
550	0.0014478
562	0.0006156
574	0.0002109
586	0.000285
598	0.0002223
610	0.0002451
622	0.0002622
634	0.0003591
646	0.0005187
658	0.000684
670	0.0013851
682	0.0021318
694	0.004503
706	0.0145749
718	0.0387486
730	0.057
742	0.0458793
754	0.0065094
766	0.0020634
778	0.0018468
790	0.0022629
802	0.0017727
814	0.001311
826	0.000855
838	0.0006042
850	0.0004275
862	0.0002394
874	0.0001995
886	9.12e-05
898	6.84e-05
910	0.0001197
922	0.0001311
934	8.55e-05
946	6.27e-05
958	0
970	9.69e-05
982	9.69e-05
994	0.0001083
1006	8.55e-05
1018	0.0001881
1030	0.0002223
1042	0.000342
1054	0.0004104
1066	0.0003705
1078	0.0002166
1090	0.0001653
1102	0.0002337
1114	0.0003021
1126	0.0003249
1138	0.0005529
1150	0.001311
1162	0.0074898
1174	0.0352602
1186	0.0400539
1198	0.0281352
1210	0.0025821
1222	0.0010488
1234	0.0004503
1246	0.0002394
1258	9.69e-05
1270	9.69e-05
1282	6.27e-05
1294	8.55e-05
1306	7.98e-05
1318	7.41e-05
1330	6.27e-05
1342	8.55e-05
1354	0.0001254
1366	0.0002736
1378	0.0002793
1390	0.0002109
1402	0.0001539
1414	0.0002565
1426	0.0003363
1438	0.0004959
1450	0.000627
1462	0.0005529
1474	0.0003762
1486	0.000114
1498	0.0001197
1510	0.000114
1522	7.98e-05
1534	0.000114
1546	5.7e-05
1558	9.12e-05
1570	0.0001596
1582	0.0001596
1594	0.0001026
1606	7.41e-05
1618	7.41e-05
1630	5.13e-05
1642	7.41e-05
1654	6.27e-05
1666	6.27e-05
1678	3.42e-05
1690	2.28e-05
1702	5.7e-05
1714	3.42e-05
1726	2.85e-05
1738	1.14e-05
1750	4.56e-05
1762	4.56e-05
1774	4.56e-05
1786	3.99e-05
1798	4.56e-05
1810	9.69e-05
1822	8.55e-05
1834	2.85e-05
1846	3.99e-05
1858	5.7e-05
1870	3.99e-05
1882	9.69e-05
1894	0.0001938
1906	0.0002052
1918	0.0001482
1930	0.0001083
1942	0.0001425
1954	0.0001482
1966	0.0001482
1978	0.000171
1990	0.0001083
2002	0.0001026
2014	9.12e-05
2026	4.56e-05
2038	6.27e-05
2050	4.56e-05
2062	3.42e-05
2074	5.13e-05
2086	7.41e-05
2098	9.12e-05
2110	7.98e-05
2122	0.0001254
2134	0.0001824
2146	0.0002565
2158	0.0003192
2170	0.0003648
2182	0.0004161
2194	0.0003135
2206	0.000285
2218	0.0002508
2230	0.0001824
2242	0.0001254
2254	0.0001083
2266	9.12e-05
2278	0.0001311
2290	0.0001368
2302	0.0001425
2314	0.0001824
2326	0.0001938
2338	0.0002508
2350	0.0003363
2362	0.0003762
2374	0.0003306
2386	0.0001482
2398	0.0001026
2410	9.69e-05
2422	5.13e-05
2434	5.7e-05
2446	3.42e-05
2458	3.99e-05
2470	3.42e-05
2482	3.42e-05
2494	3.42e-05
2506	6.84e-05
2518	6.27e-05
2530	6.84e-05
2542	8.55e-05
2554	9.12e-05
2566	0.0001368
2578	0.0002622
2590	0.0003249
2602	0.000285
2614	6.84e-05
2626	5.7e-05
2638	7.41e-05
2650	9.12e-05
2662	1.71e-05
2674	5.13e-05
2686	2.85e-05
2698	6.27e-05
2710	0
2722	5.13e-05
2734	5.13e-05
2746	8.55e-05
2758	0.0001311
2770	9.69e-05
2782	7.98e-05
2794	0.0001026
2806	5.7e-05
2818	7.41e-05
2830	7.98e-05
2842	3.42e-05
2854	8.55e-05
2866	3.99e-05
2878	6.27e-05
2890	9.12e-05
2902	3.99e-05
2914	0.0001482
2926	0.0001311
2938	0.0002052
2950	0.0003648
2962	0.0004788
2974	0.0007011
2986	0.0010545
2998	0.001083
3010	0.0012825
3022	0.0009633
3034	0.000684
3046	0.0004845
3058	0.000399
3070	0.0003819
3082	0.0002565
3094	0.0002394
3106	0.0001539
3118	0.0001083
3130	9.69e-05
3142	9.12e-05
3154	5.7e-05
3166	7.41e-05
3178	7.98e-05
3190	1.14e-05
3202	0.0001083
3214	0.0001254
3226	0.0001311
3238	9.69e-05
3250	0.0001197
3262	6.27e-05
3274	3.42e-05
3286	0.0001197
3298	0.0001026
3310	3.99e-05
3322	0.0001254
3334	0.0001026
3346	0.0001311
3358	0.0001539
3370	0.0001653
3382	0.0001767
3394	0.0001482
3406	0.0001311
3418	0.0002109
3430	0.0001425
3442	0.0001197
3454	0.0001482
3466	0.0001083
3478	0.0001311
3490	0.0001482
3502	0.0001767
3514	0.0001653
3526	0.0001938
3538	0.000114
3550	0.0001767
3562	0.0001482
3574	0.0001311
3586	0.0001083
3598	0.0001824
3610	0.0001254
3622	0.0002052
3634	0.0001083
3646	0.0001539
3658	0.0002223
3670	0.0001482
3682	0.0001824
3694	0.0002565
3706	0.0002622
3718	0.000228
3730	0.0002337
3742	0.0001653
3754	0.0002508
3766	0.0002622
3778	0.0001824
3790	0.0002052
3802	0.0001596
3814	0.0002964
3826	0.000228
3838	0.0002337
