Infrared Spectrum: Propane, 1,2-dichloro-2-methyl-
Formula: C 4 H 8 Cl 2
CAS: 594-37-6
State: gas
Origin: Sadtler Research Labs Under US-EPA Contract
1/CM	ABSORBANCE
450	0
462	0.0172374
474	0.0225978
486	0.0182884
498	0.0284837
510	0.0139791
522	0.0187089
534	0.0163965
546	0.0259612
558	0.0381535
570	0.0873431
582	0.144731
594	0.135587
606	0.112569
618	0.356204
630	0.673729
642	0.437241
654	0.0656913
666	0.0352105
678	0.0222825
690	0.019865
702	0.0435139
714	0.211683
726	0.753295
738	0.840112
750	0.131172
762	0.197284
774	0.147779
786	0.047613
798	0.0435139
810	0.0747304
822	0.108154
834	0.0888146
846	0.0447752
858	0.0245948
870	0.0250152
882	0.0572828
894	0.0668474
906	0.0418322
918	0.0216518
930	0.0255408
942	0.0304807
954	0.052553
966	0.0968026
978	0.184041
990	0.163755
1002	0.0512917
1014	0.0345799
1026	0.0259612
1038	0.0280633
1050	0.0283786
1062	0.0313216
1074	0.0379433
1086	0.0825082
1098	0.240693
1110	0.783775
1122	0.947741
1134	0.291984
1146	0.0931239
1158	0.0973282
1170	0.0801959
1182	0.0590696
1194	0.0722078
1206	0.138635
1218	0.174056
1230	0.155872
1242	0.132959
1254	0.113514
1266	0.0982741
1278	0.114986
1290	0.141052
1302	0.0918626
1314	0.0393096
1326	0.0209161
1338	0.0234386
1350	0.0405709
1362	0.156188
1374	0.405079
1386	0.538143
1398	0.339703
1410	0.102373
1422	0.0701057
1434	0.165122
1446	0.27296
1458	0.347901
1470	0.3026
1482	0.158605
1494	0.0529734
1506	0.0214416
1518	0.0196548
1530	0.0146097
1542	0.0149251
1554	0.0179731
1566	0.0166067
1578	0.0149251
1590	0.0160812
1602	0.0127178
1614	0.0120872
1626	0.0152404
1638	0.0145046
1650	0.0172374
1662	0.015871
1674	0.0156608
1686	0.0169221
1698	0.0172374
1710	0.0166067
1722	0.0166067
1734	0.0153455
1746	0.0163965
1758	0.016817
1770	0.0149251
1782	0.0145046
1794	0.0145046
1806	0.0137689
1818	0.0133485
1830	0.0145046
1842	0.0143995
1854	0.013874
1866	0.0133485
1878	0.0137689
1890	0.0140842
1902	0.0137689
1914	0.0127178
1926	0.0119821
1938	0.0119821
1950	0.0121923
1962	0.0132434
1974	0.0130331
1986	0.0131383
1998	0.0137689
2010	0.0143995
2022	0.0132434
2034	0.0125076
2046	0.0121923
2058	0.0121923
2070	0.0124025
2082	0.0127178
2094	0.0136638
2106	0.0135587
2118	0.012928
2130	0.0121923
2142	0.0128229
2154	0.013874
2166	0.013874
2178	0.0141893
2190	0.015871
2202	0.0170272
2214	0.015871
2226	0.0146097
2238	0.0140842
2250	0.0133485
2262	0.0133485
2274	0.0139791
2286	0.0126127
2298	0.0117719
2310	0.013874
2322	0.0159761
2334	0.0152404
2346	0.0153455
2358	0.0152404
2370	0.0139791
2382	0.0145046
2394	0.0142944
2406	0.0139791
2418	0.0131383
2430	0.0128229
2442	0.0120872
2454	0.0121923
2466	0.0121923
2478	0.0121923
2490	0.0126127
2502	0.0130331
2514	0.0131383
2526	0.0130331
2538	0.0134536
2550	0.0133485
2562	0.0133485
2574	0.0140842
2586	0.0143995
2598	0.0143995
2610	0.0143995
2622	0.0150302
2634	0.0159761
2646	0.0169221
2658	0.0165016
2670	0.0161863
2682	0.0161863
2694	0.0165016
2706	0.0174476
2718	0.0202855
2730	0.0230182
2742	0.0225978
2754	0.0211263
2766	0.0179731
2778	0.0166067
2790	0.0169221
2802	0.0186038
2814	0.0259612
2826	0.0336339
2838	0.0400454
2850	0.0493998
2862	0.0772529
2874	0.122974
2886	0.145572
2898	0.14368
2910	0.139055
2922	0.172164
2934	0.305858
2946	0.455214
2958	0.374598
2970	0.343171
2982	0.709991
2994	1.05106
3006	0.617077
3018	0.200542
3030	0.0677934
3042	0.0276429
3054	0.0179731
3066	0.0163965
3078	0.0176578
3090	0.0199701
3102	0.022808
3114	0.019865
3126	0.0163965
3138	0.0155557
3150	0.0163965
3162	0.0165016
3174	0.0171323
3186	0.0171323
3198	0.0186038
3210	0.0214416
3222	0.0235437
3234	0.0244897
3246	0.022808
3258	0.0211263
3270	0.0184987
3282	0.0192344
3294	0.0175527
3306	0.0153455
3318	0.0147148
3330	0.0149251
3342	0.0166067
3354	0.0170272
3366	0.0160812
3378	0.0152404
3390	0.0165016
3402	0.0174476
3414	0.0187089
3426	0.0157659
3438	0.0142944
3450	0.0140842
3462	0.0140842
3474	0.0136638
3486	0.013874
3498	0.0134536
3510	0.0132434
3522	0.0130331
3534	0.0137689
3546	0.0134536
3558	0.0142944
3570	0.013874
3582	0.0137689
3594	0.0136638
3606	0.0150302
3618	0.0157659
3630	0.0149251
3642	0.0137689
3654	0.0139791
3666	0.0134536
3678	0.0143995
3690	0.0117719
3702	0.0148199
3714	0.0163965
3726	0.0156608
3738	0.0134536
3750	0.0132434
3762	0.0152404
3774	0.0125076
3786	0.0146097
3798	0.0132434
3810	0.0149251
3822	0.0153455
3834	0.0135587
3846	0.0162914
3858	0.0146097
3870	0.0139791
3882	0.0150302
3894	0.0163965
3906	0.0194446
3918	0.0145046
3930	0.0169221
3942	0.0150302
3954	0.0128229
3966	0.0174476
