Infrared Spectrum: ETHYLENE SULFITE
Formula: C2 H4 S O3
CAS: 3741-38-6
State: LIQUID
Class: COBLENTZ
Instrument: Not specified, most likely a grating spectrometer.
Sampling: TRANSMISSION
Path length: FILM
Resolution: 4
Origin: STANDARD OIL OF OHIO
1/CM	TRANSMITTANCE
237.838	0.703
247.297	0.705
256.757	0.703
266.216	0.729
275.676	0.737
285.135	0.734
294.595	0.734
304.054	0.737
313.514	0.737
322.973	0.737
332.433	0.72
341.892	0.708
351.352	0.685
360.811	0.632
370.271	0.4831
379.73	0.297
389.19	0.406
398.649	0.5539
408.109	0.58
417.568	0.58
427.028	0.573
436.487	0.549
445.947	0.489
455.406	0.324
464.866	0.125
474.325	0.3289
483.785	0.475
493.244	0.532
502.704	0.551
512.163	0.554
521.623	0.538
531.082	0.561
540.542	0.597
550.001	0.604
559.461	0.602
568.92	0.593
578.38	0.592
587.839	0.605
597.299	0.593
606.758	0.512
616.218	0.461
625.677	0.521
635.137	0.522
644.596	0.358
654.056	0.277
663.515	0.147
672.975	0.116
682.434	0.1909
691.894	0.3889
701.353	0.563
710.813	0.602
720.272	0.5731
729.732	0.3941
739.191	0.186
748.651	0.2209
758.11	0.4799
767.57	0.732
777.029	0.82
786.489	0.852
795.948	0.871
805.408	0.883
814.867	0.886
824.327	0.881
833.786	0.864
843.246	0.8271
852.705	0.756
862.165	0.717
871.624	0.71
881.084	0.68
890.543	0.615
900.003	0.2799
909.462	0.05
918.922	0.111
928.381	0.51
937.841	0.6999
947.3	0.724
956.76	0.686
966.219	0.695
975.679	0.688
985.138	0.568
994.598	0.238
1004.06	0.062
1013.52	0.153
1022.98	0.465
1032.44	0.585
1041.9	0.649
1051.35	0.685
1060.81	0.685
1070.27	0.624
1079.73	0.631
1089.19	0.708
1098.65	0.807
1108.11	0.807
1117.57	0.764
1127.03	0.802
1136.49	0.807
1145.95	0.773
1155.41	0.741
1164.87	0.649
1174.33	0.46
1183.79	0.219
1193.25	0.071
1202.71	0.067
1212.17	0.098
1221.63	0.2309
1231.09	0.4749
1240.54	0.651
1250	0.727
1259.46	0.766
1268.92	0.78
1278.38	0.778
1287.84	0.771
1297.3	0.766
1306.76	0.79
1316.22	0.791
1325.68	0.749
1335.14	0.759
1344.6	0.815
1354.06	0.79
1363.52	0.81
1372.98	0.83
1382.44	0.832
1391.9	0.835
1401.36	0.846
1410.82	0.852
1420.27	0.851
1429.73	0.829
1439.19	0.851
1448.65	0.834
1458.11	0.771
1467.57	0.6561
1477.03	0.802
1486.49	0.852
1495.95	0.881
1505.41	0.903
1514.87	0.906
1524.33	0.913
1533.79	0.912
1543.25	0.913
1552.71	0.912
1562.17	0.91
1571.63	0.906
1581.09	0.903
1590.55	0.905
1600.01	0.903
1609.46	0.903
1618.92	0.901
1628.38	0.901
1637.84	0.903
1647.3	0.903
1656.76	0.903
1666.22	0.908
1675.68	0.915
1685.14	0.917
1694.6	0.915
1704.06	0.917
1713.52	0.917
1722.98	0.918
1732.44	0.918
1741.9	0.92
1751.36	0.918
1760.82	0.92
1770.28	0.92
1779.74	0.92
1789.2	0.917
1798.65	0.915
1808.11	0.913
1817.57	0.913
1827.03	0.918
1836.49	0.92
1845.95	0.92
1855.41	0.92
1864.87	0.918
1874.33	0.918
1883.79	0.915
1893.25	0.912
1902.71	0.905
1912.17	0.905
1921.63	0.913
1931.09	0.918
1940.55	0.918
1950.01	0.918
1959.47	0.918
1968.93	0.918
1978.39	0.918
1987.84	0.918
1997.3	0.925
2006.76	0.928
2016.22	0.928
2025.68	0.93
2035.14	0.93
2044.6	0.93
2054.06	0.93
2063.52	0.928
2072.98	0.93
2082.44	0.928
2091.9	0.928
2101.36	0.928
2110.82	0.928
2120.28	0.928
2129.74	0.928
2139.2	0.93
2148.66	0.93
2158.12	0.93
2167.58	0.93
2177.03	0.928
2186.49	0.93
2195.95	0.928
2205.41	0.928
2214.87	0.928
2224.33	0.928
2233.79	0.928
2243.25	0.928
2252.71	0.928
2262.17	0.928
2271.63	0.928
2281.09	0.93
2290.55	0.93
2300.01	0.93
2309.47	0.93
2318.93	0.928
2328.39	0.927
2337.85	0.923
2347.31	0.921
2356.76	0.918
2366.22	0.914
2375.68	0.908
2385.14	0.905
2394.6	0.906
2404.06	0.911
2413.52	0.913
2422.98	0.915
2432.44	0.917
2441.9	0.918
2451.36	0.917
2460.82	0.917
2470.28	0.917
2479.74	0.917
2489.2	0.915
2498.66	0.918
2508.12	0.917
2517.58	0.917
2527.04	0.917
2536.5	0.915
2545.95	0.915
2555.41	0.915
2564.87	0.915
2574.33	0.913
2583.79	0.915
2593.25	0.915
2602.71	0.915
2612.17	0.915
2621.63	0.913
2631.09	0.912
2640.55	0.912
2650.01	0.911
2659.47	0.91
2668.93	0.908
2678.39	0.908
2687.85	0.907
2697.31	0.905
2706.77	0.905
2716.23	0.903
2725.69	0.901
2735.14	0.903
2744.6	0.901
2754.06	0.901
2763.52	0.9005
2772.98	0.898
2782.44	0.892
2791.9	0.886
2801.36	0.882
2810.82	0.878
2820.28	0.872
2829.74	0.864
2839.2	0.8485
2848.66	0.834
2858.12	0.8161
2867.58	0.791
2877.04	0.782
2886.5	0.7641
2895.96	0.7135
2905.42	0.666
2914.88	0.7079
2924.33	0.725
2933.79	0.7145
2943.25	0.6921
2952.71	0.6735
2962.17	0.656
2971.63	0.662
2981.09	0.698
2990.55	0.7644
3000.01	0.798
3009.47	0.8155
3018.93	0.835
3028.39	0.8525
3037.85	0.866
3047.31	0.8725
3056.77	0.878
3066.23	0.883
3075.69	0.884
3085.15	0.887
3094.61	0.886
3104.07	0.887
3113.52	0.888
3122.98	0.89
3132.44	0.891
3141.9	0.8835
3151.36	0.883
3160.82	0.881
3170.28	0.881
3179.74	0.8785
3189.2	0.876
3198.66	0.8735
3208.12	0.871
3217.58	0.8685
3227.04	0.866
3236.5	0.862
3245.96	0.857
3255.42	0.852
3264.88	0.851
3274.34	0.846
3283.8	0.84
3293.26	0.8345
3302.71	0.829
3312.17	0.8245
3321.63	0.82
3331.09	0.8115
3340.55	0.803
3350.01	0.8
3359.47	0.79
3368.93	0.784
3378.39	0.776
3387.85	0.767
3397.31	0.764
3406.77	0.757
3416.23	0.749
3425.69	0.7405
3435.15	0.736
3444.61	0.731
3454.07	0.72
3463.53	0.713
3472.99	0.707
3482.44	0.6925
3491.9	0.681
3501.36	0.6685
3510.82	0.658
3520.28	0.656
3529.74	0.658
3539.2	0.6645
3548.66	0.681
3558.12	0.6985
3567.58	0.722
3577.04	0.7505
3586.5	0.788
3595.96	0.8185
3605.42	0.847
3614.88	0.866
3624.34	0.878
3633.8	0.881
3643.26	0.884
3652.72	0.8905
3662.18	0.895
3671.63	0.9
3681.09	0.901
3690.55	0.903
3700.01	0.903
3709.47	0.903
3718.93	0.903
3728.39	0.903
3737.85	0.903
3747.31	0.903
3756.77	0.903
3766.23	0.903
3775.69	0.901
3785.15	0.901
3794.61	0.901
3804.07	0.9
3813.53	0.898
3822.99	0.898
3832.45	0.896
3841.91	0.896
3851.37	0.893
3860.82	0.892
3870.28	0.891
3879.74	0.891
3889.2	0.891
