Infrared Spectrum: Methylthioacetonitrile
Formula: C 3 H 5 N S
CAS: 35120-10-6
State: gas
Origin: EPA-IR VAPOR PHASE LIBRARY
1/CM	ABSORBANCE
549.9	0.000772
559.547	0.0005916
569.193	0.0005983
578.84	0.0005529
588.486	0.0005551
598.133	0.0005739
607.779	0.0004861
617.426	0.0005004
627.072	0.0005268
636.719	0.0006611
646.365	0.0006562
656.012	0.0008977
665.658	0.0011062
675.305	0.001391
684.951	0.002161
694.598	0.002241
704.245	0.002011
713.891	0.001521
723.538	0.001281
733.184	0.001281
742.831	0.0010874
752.477	0.000929
762.124	0.0005932
771.77	0.0004039
781.417	0.00028762
791.063	0.0003746
800.71	0.0003697
810.356	0.0004314
820.003	0.0005029
829.649	0.0005606
839.296	0.0006541
848.943	0.0007271
858.589	0.0005774
868.236	0.0005418
877.882	0.0005716
887.529	0.0007667
897.175	0.001181
906.822	0.001931
916.468	0.002641
926.115	0.002751
935.761	0.002471
945.408	0.001851
955.054	0.001991
964.701	0.002821
974.347	0.003591
983.994	0.003781
993.64	0.003321
1003.29	0.002441
1012.93	0.001341
1022.58	0.0008913
1032.23	0.0006558
1041.87	0.0005846
1051.52	0.0006055
1061.17	0.0004961
1070.81	0.0005026
1080.46	0.0003943
1090.11	0.0004584
1099.75	0.0003995
1109.4	0.0003545
1119.05	0.0004253
1128.69	0.0003261
1138.34	0.0004365
1147.99	0.000461
1157.63	0.0006141
1167.28	0.001002
1176.92	0.001411
1186.57	0.001711
1196.22	0.001611
1205.86	0.001421
1215.51	0.002141
1225.16	0.003761
1234.8	0.003771
1244.45	0.003351
1254.1	0.002331
1263.74	0.0009632
1273.39	0.0007155
1283.04	0.0007365
1292.68	0.0007462
1302.33	0.0008287
1311.98	0.0010589
1321.62	0.001271
1331.27	0.0011968
1340.92	0.0011832
1350.56	0.0007868
1360.21	0.0007106
1369.86	0.0008701
1379.5	0.001371
1389.15	0.002301
1398.79	0.003891
1408.44	0.005731
1418.09	0.007411
1427.73	0.008281
1437.38	0.008111
1447.03	0.006411
1456.67	0.004881
1466.32	0.002721
1475.97	0.001561
1485.61	0.0010102
1495.26	0.0007775
1504.91	0.0007464
1514.55	0.0007068
1524.2	0.0007383
1533.85	0.0007049
1543.49	0.0006454
1553.14	0.0006557
1562.79	0.0006704
1572.43	0.0006761
1582.08	0.0007087
1591.73	0.0006347
1601.37	0.00055
1611.02	0.0005134
1620.67	0.0004256
1630.31	0.0003276
1639.96	0.0003451
1649.6	0.00021177
1659.25	0.00028345
1668.9	0.00029226
1678.54	0.00027407
1688.19	0.00028726
1697.84	0.00027264
1707.48	0.00026668
1717.13	0.00024927
1726.78	0.00022728
1736.42	0.00024912
1746.07	0.0001909
1755.72	0.0001773
1765.36	0.0001867
1775.01	0.00019971
1784.66	0.0001457
1794.3	0.0001193
1803.95	0.0001343
1813.6	0.0001127
1823.24	0.0001712
1832.89	0.0001415
1842.54	0.0001589
1852.18	0.0001237
1861.83	0.0001057
1871.47	0.0001291
1881.12	0.0001306
1890.77	0.0001073
1900.41	0.000142
1910.06	0.0001159
1919.71	0.0001302
1929.35	0.0001254
1939	0.0001083
1948.65	0.0001198
1958.29	0.0001305
1967.94	0.0001265
1977.59	0.00019192
1987.23	0.0001836
1996.88	0.000201032
2006.53	0.00027192
2016.17	0.00029429
2025.82	0.0003453
2035.47	0.0003322
2045.11	0.00024352
2054.76	0.0001777
2064.41	0.00022071
2074.05	0.00024673
2083.7	0.00023271
2093.35	0.0001087
2102.99	0.000155
2112.64	0.0001131
2122.28	8e-05
2131.93	0.0001393
2141.58	7.3e-05
2151.22	0.0001134
2160.87	0.0001376
2170.52	0.0001483
2180.16	0.0001034
2189.81	0.0001385
2199.46	0.000101
2209.1	0.0001421
2218.75	0.00019419
2228.4	0.000375
2238.04	0.0006997
2247.69	0.0008579
2257.34	0.0008019
2266.98	0.0005219
2276.63	0.0003098
2286.28	0.00027029
2295.92	0.00026842
2305.57	0.00024399
2315.22	0.0002671
2324.86	0.000143
2334.51	0.0001865
2344.16	0.0001783
2353.8	0.000210266
2363.45	0.0001296
2373.09	0.0001649
2382.74	0.0001803
2392.39	0.00023236
2402.03	0.00029525
2411.68	0.00029813
2421.33	0.00029115
2430.97	0.0003371
2440.62	0.00023298
2450.27	0.00026922
2459.91	0.0003525
2469.56	0.00026311
2479.21	0.0001665
2488.85	8.5e-05
2498.5	6.3e-05
2508.15	2.5e-05
2517.79	5e-06
2527.44	6.6e-05
2537.09	5.9e-05
2546.73	6.3e-05
2556.38	0.0001048
2566.03	5.3e-05
2575.67	8.4e-05
2585.32	0.0001196
2594.96	0.0001523
2604.61	0.0001018
2614.26	0.0001159
2623.9	5.6e-05
2633.55	9.3e-05
2643.2	0.0001542
2652.84	0.0001744
2662.49	8.9e-05
2672.14	7.4e-05
2681.78	9.6e-05
2691.43	0.0001029
2701.08	1e-06
2710.72	2.8e-05
2720.37	5.6e-05
2730.02	3.1e-05
2739.66	0.0001398
2749.31	0.0001878
2758.96	0.0001635
2768.6	0.0001249
2778.25	0.00019249
2787.9	0.000172
2797.54	0.00028436
2807.19	0.0004865
2816.84	0.0007037
2826.48	0.0011892
2836.13	0.001811
2845.77	0.002031
2855.42	0.002121
2865.07	0.001871
2874.71	0.001481
2884.36	0.001521
2894.01	0.001691
2903.65	0.003021
2913.3	0.005461
2922.95	0.009171
2932.59	0.010441
2942.24	0.009791
2951.89	0.007061
2961.53	0.003961
2971.18	0.003101
2980.83	0.003351
2990.47	0.004321
3000.12	0.003771
3009.77	0.002991
3019.41	0.002051
3029.06	0.0011243
3038.71	0.0007426
3048.35	0.000467
3058	0.0004488
3067.64	0.0004404
3077.29	0.0004338
3086.94	0.0005717
3096.58	0.0006131
3106.23	0.0006337
3115.88	0.0006597
3125.52	0.000544
3135.17	0.0006875
3144.82	0.0008634
3154.46	0.000814
3164.11	0.0009458
3173.76	0.0007703
3183.4	0.0005043
3193.05	0.0004727
3202.7	0.0005109
3212.34	0.0003552
3221.99	0.000345
3231.64	0.0005057
3241.28	0.0004577
3250.93	0.0003119
3260.58	0.000336
3270.22	0.0004707
3279.87	0.0005887
3289.52	0.0005796
3299.16	0.0004175
3308.81	0.0003113
3318.45	0.0003397
3328.1	0.000504
3337.75	0.0003295
3347.39	0.0004277
3357.04	0.000355
3366.69	0.0004832
3376.33	0.000418
3385.98	0.0003104
3395.63	0.0004582
3405.27	0.0003255
3414.92	0.0004623
3424.57	0.0004609
3434.21	0.0003508
3443.86	0.0004044
3453.51	0.0002946
3463.15	0.0004156
3472.8	0.0003534
3482.45	0.0004785
3492.09	0.0004672
3501.74	0.0003141
3511.39	0.0005222
3521.03	0.0004713
3530.68	0.0003587
3540.33	0.0003893
3549.97	0.0005576
3559.62	0.0004414
3569.26	0.0003072
3578.91	0.00030079
3588.56	0.0003954
3598.2	0.000449
3607.85	0.0003754
3617.5	0.00028889
3627.14	0.0005109
3636.79	0.00026316
3646.44	0.00019431
3656.08	0.000331
3665.73	0.0003013
3675.38	0.0004404
3685.02	0.0004221
3694.67	0.0004663
3704.32	0.00022463
3713.96	0.0002726
3723.61	0.00024915
3733.26	0.00029325
3742.9	0.00028104
3752.55	0.0004324
3762.2	0.0003563
3771.84	0.0003528
3781.49	0.00029682
3791.13	0.00029909
3800.78	0.0003718
3810.43	0.0004986
3820.07	0.0003398
3829.72	0.0001611
3839.37	0.0001812
3849.01	0.0002338
3858.66	0.0003784
3868.31	0.0003415
3877.95	0.000346
3887.6	0.0003632
3897.25	0.000385
3906.89	0.000488
3916.54	0.0003571
3926.19	0.000393
3935.83	0.000322
3945.48	0.00022857
3955.13	0.0003026
3964.77	0.000389
3974.42	0.0004813
3984.07	0.00029614
3993.71	0.0003593
