Infrared Spectrum: CYCLOPENTANE, METHYL-
Formula: C6 H12
CAS: 96-37-7
State: LIQUID (NEAT)
Boiling point: 72 C
Class: COBLENTZ III
Instrument: PERKIN-ELMER 180 (GRATING)
Instrument parameters: GRATING CHANGES AT 2000, 1000, 500, 250 CM^-^1
Sampling: TRANSMISSION
Path length: 0.006 CM, KBr CELL
Resolution: 4
Origin: STANDARD OIL OF OHIO
1/CM	TRANSMITTANCE
293.198	0.009
303.37	0.034
313.541	0.061
323.713	0.101
333.885	0.168
344.056	0.225
354.228	0.305
364.4	0.389
374.571	0.46
384.743	0.526
394.915	0.585
405.086	0.635
415.258	0.681
425.43	0.703
435.602	0.746
445.773	0.773
455.945	0.793
466.117	0.807
476.288	0.82
486.46	0.835
496.632	0.874
506.803	0.87
516.975	0.854
527.147	0.783
537.318	0.828
547.49	0.852
557.662	0.867
567.833	0.865
578.005	0.869
588.177	0.867
598.348	0.861
608.52	0.863
618.692	0.864
628.863	0.856
639.035	0.852
649.207	0.851
659.379	0.858
669.55	0.851
679.722	0.862
689.894	0.86
700.065	0.856
710.237	0.852
720.409	0.845
730.58	0.841
740.752	0.832
750.924	0.807
761.095	0.782
771.267	0.787
781.439	0.795
791.61	0.805
801.782	0.799
811.954	0.795
822.125	0.778
832.297	0.748
842.469	0.73
852.64	0.757
862.812	0.765
872.984	0.708
883.156	0.565
893.327	0.6
903.499	0.664
913.671	0.75
923.842	0.786
934.014	0.792
944.186	0.771
954.357	0.701
964.529	0.511
974.701	0.433
984.872	0.617
995.044	0.649
1005.22	0.701
1015.39	0.736
1025.56	0.779
1035.73	0.807
1045.9	0.811
1056.07	0.812
1066.25	0.814
1076.42	0.812
1086.59	0.816
1096.76	0.812
1106.93	0.792
1117.1	0.751
1127.28	0.666
1137.45	0.659
1147.62	0.753
1157.79	0.755
1167.96	0.752
1178.13	0.729
1188.31	0.728
1198.48	0.719
1208.65	0.707
1218.82	0.706
1228.99	0.706
1239.16	0.706
1249.34	0.7
1259.51	0.693
1269.68	0.673
1279.85	0.629
1290.02	0.607
1300.19	0.635
1310.37	0.659
1320.54	0.666
1330.71	0.603
1340.88	0.4329
1351.05	0.5381
1361.22	0.5019
1371.4	0.1411
1381.57	0.5181
1391.74	0.61
1401.91	0.597
1412.08	0.537
1422.25	0.4339
1432.43	0.2339
1442.6	0.003
1452.77	0.003
1462.94	0.099
1473.11	0.2181
1483.28	0.4491
1493.46	0.593
1503.63	0.671
1513.8	0.722
1523.97	0.754
1534.14	0.779
1544.31	0.802
1554.49	0.815
1564.66	0.815
1574.83	0.818
1585	0.828
1595.17	0.826
1605.34	0.824
1615.52	0.826
1625.69	0.825
1635.86	0.82
1646.03	0.83
1656.2	0.829
1666.37	0.821
1676.55	0.813
1686.72	0.815
1696.89	0.817
1707.06	0.831
1717.23	0.837
1727.41	0.838
1737.58	0.837
1747.75	0.84
1757.92	0.844
1768.09	0.846
1778.26	0.85
1788.44	0.85
1798.61	0.841
1808.78	0.847
1818.95	0.85
1829.12	0.848
1839.29	0.851
1849.47	0.847
1859.64	0.84
1869.81	0.84
1879.98	0.842
1890.15	0.842
1900.32	0.841
1910.5	0.85
1920.67	0.849
1930.84	0.851
1941.01	0.855
1951.18	0.855
1961.35	0.85
1971.53	0.855
1981.7	0.849
1991.87	0.843
2002.04	0.855
2012.21	0.857
2022.38	0.861
2032.56	0.857
2042.73	0.859
2052.9	0.855
2063.07	0.854
2073.24	0.855
2083.41	0.855
2093.59	0.855
2103.76	0.854
2113.93	0.852
2124.1	0.851
2134.27	0.846
2144.44	0.836
2154.62	0.83
2164.79	0.819
2174.96	0.825
2185.13	0.83
2195.3	0.833
2205.47	0.834
2215.65	0.836
2225.82	0.836
2235.99	0.831
2246.16	0.828
2256.33	0.822
2266.5	0.817
2276.68	0.818
2286.85	0.82
2297.02	0.822
2307.19	0.816
2317.36	0.808
2327.53	0.806
2337.71	0.803
2347.88	0.805
2358.05	0.815
2368.22	0.822
2378.39	0.8329
2388.56	0.837
2398.74	0.837
2408.91	0.83
2419.08	0.8151
2429.25	0.818
2439.42	0.82
2449.59	0.812
2459.77	0.8171
2469.94	0.8299
2480.11	0.83
2490.28	0.829
2500.45	0.83
2510.62	0.8299
2520.8	0.8221
2530.97	0.8141
2541.14	0.811
2551.31	0.7951
2561.48	0.7743
2571.65	0.7501
2581.83	0.716
2592	0.7309
2602.17	0.7331
2612.34	0.7171
2622.51	0.7168
2632.68	0.7389
2642.86	0.7538
2653.03	0.763
2663.2	0.7581
2673.37	0.756
2683.54	0.7363
2693.71	0.74
2703.89	0.7351
2714.06	0.676
2724.23	0.5966
2734.4	0.6848
2744.57	0.6811
2754.74	0.6514
2764.92	0.6023
2775.09	0.599
2785.26	0.5614
2795.43	0.5064
2805.6	0.4205
2815.77	0.2536
2825.95	0.1292
2836.12	0.0059
2846.29	0
2856.46	0
2866.63	0
2876.81	0
2886.98	0
2897.15	0
2907.32	0
2917.49	0
2927.66	0
2937.84	0
2948.01	0
2958.18	0
2968.35	0
2978.52	0.0039
2988.69	0.0906
2998.87	0.2066
3009.04	0.3398
3019.21	0.4477
3029.38	0.5601
3039.55	0.6214
3049.72	0.6704
3059.9	0.6989
3070.07	0.7249
3080.24	0.7419
3090.41	0.7509
3100.58	0.759
3110.75	0.7629
3120.93	0.7609
3131.1	0.7592
3141.27	0.7561
3151.44	0.7461
3161.61	0.7401
3171.78	0.7321
3181.96	0.7309
3192.13	0.7477
3202.3	0.7753
3212.47	0.7984
3222.64	0.8088
3232.81	0.8178
3242.99	0.816
3253.16	0.8053
3263.33	0.8
3273.5	0.8088
3283.67	0.811
3293.84	0.8151
3304.02	0.815
3314.19	0.811
3324.36	0.8151
3334.53	0.814
3344.7	0.8111
3354.87	0.811
3365.05	0.8148
3375.22	0.8128
3385.39	0.8208
3395.56	0.8309
3405.73	0.8309
3415.9	0.837
3426.08	0.8348
3436.25	0.835
3446.42	0.832
3456.59	0.8272
3466.76	0.8171
3476.93	0.812
3487.11	0.811
3497.28	0.8208
3507.45	0.824
3517.62	0.829
3527.79	0.827
3537.96	0.828
3548.14	0.8292
3558.31	0.831
3568.48	0.8309
3578.65	0.831
3588.82	0.836
3598.99	0.8328
3609.17	0.837
3619.34	0.837
3629.51	0.8369
3639.68	0.8341
3649.85	0.836
3660.02	0.8328
3670.2	0.8262
3680.37	0.8273
3690.54	0.821
3700.71	0.8161
3710.88	0.815
3721.05	0.818
3731.23	0.8148
3741.4	0.8057
3751.57	0.7972
3761.74	0.7861
3771.91	0.7859
3782.08	0.7909
3792.26	0.7909
3802.43	0.7989
3812.6	0.7962
3822.77	0.7912
3832.94	0.7763
3843.11	0.7711
3853.29	0.7736
3863.46	0.7836
3873.63	0.792
3883.8	0.7979
3893.97	0.8019
3904.14	0.8021
3914.32	0.798
3924.49	0.797
3934.66	0.8
3944.83	0.8049
3955	0.8076
3965.17	0.8119
3975.35	0.816
3985.52	0.8101
3995.69	0.807
