Infrared Spectrum: Cyclopentane, methyl-
Formula: C 6 H 12
CAS: 96-37-7
State: gas
Origin: Sadtler Research Labs Under US-EPA Contract
1/CM	ABSORBANCE
450	0.002585
462	0.0007238
474	0.0003102
486	0.0006721
498	0.0008272
510	0.0013959
522	0.0016027
534	0.0013442
546	0.0014993
558	0.0001034
570	0.0014476
582	0.0014993
594	0.0014993
606	0.0016544
618	0.0016027
630	0.001034
642	0.0017061
654	0.0011891
666	0.0011891
678	0.0017578
690	0.0017578
702	0.0016027
714	0.0016027
726	0.0014993
738	0.0013959
750	0.001551
762	0.001551
774	0.0014993
786	0.001551
798	0.0014476
810	0.0014476
822	0.0019129
834	0.0014476
846	0.001551
858	0.0023782
870	0.0029469
882	0.0038258
894	0.0042911
906	0.003619
918	0.0028435
930	0.0023265
942	0.0018095
954	0.0029469
966	0.0044462
978	0.00517
990	0.00517
1002	0.003102
1014	0.0022748
1026	0.0016544
1038	0.0017578
1050	0.0011891
1062	0.0011891
1074	0.0011374
1086	0.0011374
1098	0.0011374
1110	0.0016544
1122	0.002068
1134	0.002585
1146	0.002585
1158	0.0020163
1170	0.0014993
1182	0.0017578
1194	0.0020163
1206	0.0019646
1218	0.0024299
1230	0.0024299
1242	0.0024299
1254	0.0024299
1266	0.0024299
1278	0.0028435
1290	0.0028435
1302	0.0028435
1314	0.0028435
1326	0.0033605
1338	0.0059455
1350	0.0071863
1362	0.0085305
1374	0.0095645
1386	0.0110638
1398	0.0083237
1410	0.004653
1422	0.0056353
1434	0.0111155
1446	0.0229548
1458	0.0270391
1470	0.029986
1482	0.0187154
1494	0.0106502
1506	0.0053251
1518	0.0026884
1530	0.0016027
1542	0.0014476
1554	0.0010857
1566	0.0006204
1578	0.0005687
1590	0.0006204
1602	0.0005687
1614	0.0007755
1626	0.0004653
1638	0.001034
1650	0.0009823
1662	0.0006204
1674	0.0009306
1686	0.0009823
1698	0.0009306
1710	0.000517
1722	0.0003619
1734	0.0007755
1746	0.0003619
1758	0.0004136
1770	0.0003102
1782	0.0003619
1794	0.0003619
1806	0.0003102
1818	0.0003619
1830	0.0002585
1842	0.0003102
1854	0.0003102
1866	0.0003102
1878	0.0002585
1890	0.0002585
1902	0.0002068
1914	0.0002068
1926	0.0002068
1938	0.0001551
1950	0.0002068
1962	0.0002068
1974	0.0001551
1986	0.0001551
1998	0.0001551
2010	0.0002068
2022	0.0001551
2034	0.0001551
2046	5.17e-05
2058	5.17e-05
2070	0.0001034
2082	5.17e-05
2094	0
2106	5.17e-05
2118	5.17e-05
2130	5.17e-05
2142	0.0004136
2154	0.0004653
2166	0.0009823
2178	0.0009823
2190	0.0008789
2202	0.0004653
2214	0.0004136
2226	0.0004136
2238	0.0004136
2250	0.0003619
2262	0.0003102
2274	0.0004136
2286	0.0003619
2298	0.0010857
2310	0.0012925
2322	0.0011374
2334	0.0006721
2346	0.0004136
2358	0.0006204
2370	0.0003619
2382	5.17e-05
2394	0.0001551
2406	0.0001551
2418	0.0001551
2430	0.0007755
2442	0.0004653
2454	0.0006204
2466	0.0006204
2478	0.0006204
2490	0.0006204
2502	5.17e-05
2514	5.17e-05
2526	0.0005687
2538	0.0005687
2550	0.0005687
2562	0.0006204
2574	0.001034
2586	0.0016027
2598	0.0016027
2610	0.0016027
2622	0.002068
2634	0.0016027
2646	0.0016027
2658	0.0016027
2670	0.0011374
2682	0.0016544
2694	0.0016544
2706	0.0016544
2718	0.002068
2730	0.0031537
2742	0.0036707
2754	0.0034122
2766	0.003102
2778	0.003619
2790	0.004653
2802	0.0060489
2814	0.0094611
2826	0.0146311
2838	0.0221276
2850	0.043945
2862	0.10004
2874	0.161821
2886	0.174746
2898	0.14538
2910	0.147242
2922	0.187723
2934	0.250021
2946	0.368931
2958	0.457959
2970	0.38015
2982	0.212746
2994	0.0736725
3006	0.0292622
3018	0.0154583
3030	0.008789
3042	0.0057904
3054	0.0047564
3066	0.0037741
3078	0.0032571
3090	0.0027918
3102	0.0022748
3114	0.0023265
3126	0.0022748
3138	0.0022748
3150	0.0023265
3162	0.0028435
3174	0.0028435
3186	0.0028435
3198	0.0023782
3210	0.0013959
3222	0.0008789
3234	0.0004136
3246	0.0007238
3258	0.0009306
3270	0.0004653
3282	0.0004653
3294	0.0002585
3306	0.0004136
3318	0.0004136
3330	5.17e-05
3342	0.000517
3354	0.0004653
3366	5.17e-05
3378	0.0004653
3390	0.0004653
3402	0.0002585
3414	5.17e-05
3426	0.0001034
3438	0.0004653
3450	0.0004136
3462	0.0004653
3474	0.0009306
3486	0.0009823
3498	0.0006204
3510	0.0010857
3522	0.0010857
3534	0.0010857
3546	5.17e-05
3558	0.001034
3570	0.0008272
3582	0.0010857
3594	0.0010857
3606	0.0009823
3618	0.0008789
3630	0.001551
3642	0.0011374
3654	0.0009306
3666	0.001551
3678	0.0017578
3690	0.0013959
3702	0.0020163
3714	0.0017061
3726	0.0017061
3738	0.0018095
3750	0.0018095
3762	0.0016027
3774	0.002068
3786	0.0017061
3798	0.0023265
3810	0.0027918
3822	0.0025333
3834	0.0024816
3846	0.0025333
3858	0.0024299
3870	0.0022231
3882	0.0021197
3894	0.0027401
3906	0.0023782
3918	0.0020163
3930	0.0023782
3942	0.0022748
3954	0.0027918
3966	0.0026884
