Infrared Spectrum: Sym-Dimethylethylene diamine
Formula: C 4 H 12 N 2
CAS: 110-70-3
State: gas
Origin: EPA-IR VAPOR PHASE LIBRARY
1/CM	ABSORBANCE
501.5	0.002276
513.074	0.002606
524.648	0.002456
536.222	0.002686
547.796	0.002446
559.37	0.002516
570.944	0.002646
582.518	0.002986
594.092	0.003706
605.666	0.004166
617.24	0.005036
628.814	0.006226
640.388	0.007406
651.962	0.009206
663.536	0.010816
675.11	0.012646
686.684	0.014586
698.258	0.016236
709.832	0.017166
721.406	0.016836
732.98	0.015376
744.554	0.013386
756.128	0.011066
767.702	0.008866
779.276	0.006736
790.85	0.005186
802.423	0.004196
813.997	0.003656
825.571	0.003266
837.145	0.003386
848.719	0.003346
860.293	0.003416
871.867	0.003246
883.441	0.002766
895.015	0.002446
906.589	0.002466
918.163	0.002466
929.737	0.002516
941.311	0.002446
952.885	0.002486
964.459	0.002746
976.033	0.002986
987.607	0.003246
999.181	0.003446
1010.76	0.003926
1022.33	0.004446
1033.9	0.004706
1045.48	0.004356
1057.05	0.003866
1068.63	0.004206
1080.2	0.005846
1091.77	0.009286
1103.35	0.014236
1114.92	0.018306
1126.49	0.018266
1138.07	0.016476
1149.64	0.014926
1161.22	0.012616
1172.79	0.008686
1184.36	0.005746
1195.94	0.003836
1207.51	0.002976
1219.09	0.002756
1230.66	0.002976
1242.23	0.003176
1253.81	0.003316
1265.38	0.003256
1276.96	0.002846
1288.53	0.002386
1300.1	0.002296
1311.68	0.002396
1323.25	0.002666
1334.83	0.004076
1346.4	0.005506
1357.97	0.005526
1369.55	0.003766
1381.12	0.002846
1392.7	0.002556
1404.27	0.002906
1415.84	0.004266
1427.42	0.006806
1438.99	0.011376
1450.57	0.015536
1462.14	0.017326
1473.71	0.015486
1485.29	0.010826
1496.86	0.005666
1508.44	0.003116
1520.01	0.002016
1531.58	0.001536
1543.16	0.0012889
1554.73	0.0010774
1566.31	0.0009792
1577.88	0.000883
1589.45	0.0008277
1601.03	0.000748
1612.6	0.0006969
1624.18	0.0006494
1635.75	0.0006038
1647.32	0.0004636
1658.9	0.0003748
1670.47	0.0004241
1682.05	0.0004851
1693.62	0.0005105
1705.19	0.0004979
1716.77	0.000461
1728.34	0.0004711
1739.92	0.0004848
1751.49	0.0004777
1763.06	0.0004959
1774.64	0.0004688
1786.21	0.0004664
1797.79	0.0004973
1809.36	0.0004864
1820.93	0.0005189
1832.51	0.0005563
1844.08	0.000567
1855.66	0.0005594
1867.23	0.0005413
1878.8	0.0004806
1890.38	0.0004752
1901.95	0.0004304
1913.53	0.00035626
1925.1	0.000319419
1936.67	0.0002953
1948.25	0.0002722
1959.82	0.0003015
1971.4	0.000322501
1982.97	0.0003016
1994.54	0.00031012
2006.12	0.00032902
2017.69	0.0003031
2029.27	0.0002566
2040.84	0.0002738
2052.41	0.0002542
2063.99	0.000292
2075.56	0.0003043
2087.14	0.00033104
2098.71	0.00033455
2110.28	0.000321203
2121.86	0.0002991
2133.43	0.0002969
2145.01	0.0002553
2156.58	0.000214
2168.15	0.000183
2179.73	0.000143
2191.3	0.000166
2202.88	0.000169
2214.45	0.000188
2226.02	0.000202
2237.6	0.0002417
2249.17	0.000197
2260.74	0.000208
2272.32	0.000193
2283.89	0.0002427
2295.47	0.0002168
2307.04	0.0002857
2318.61	0.0002796
2330.19	0.0002728
2341.76	0.000315892
2353.34	0.0002632
2364.91	0.0002503
2376.48	0.0002345
2388.06	0.0002228
2399.63	0.000203
2411.21	0.0002514
2422.78	0.0002239
2434.35	0.00031183
2445.93	0.00039846
2457.5	0.0004427
2469.08	0.0004888
2480.65	0.0004798
2492.22	0.0005254
2503.8	0.000494
2515.37	0.0005484
2526.95	0.0006036
2538.52	0.0006735
2550.09	0.0007295
2561.67	0.0008687
2573.24	0.0009505
2584.82	0.0010686
2596.39	0.0011559
2607.96	0.0012774
2619.54	0.001446
2631.11	0.001596
2642.69	0.001906
2654.26	0.002376
2665.83	0.002996
2677.41	0.003726
2688.98	0.004246
2700.56	0.004376
2712.13	0.004526
2723.7	0.004966
2735.28	0.005876
2746.85	0.007716
2758.43	0.011266
2770	0.017386
2781.57	0.028006
2793.15	0.039926
2804.72	0.044196
2816.3	0.039776
2827.87	0.035176
2839.44	0.034276
2851.02	0.034786
2862.59	0.034096
2874.17	0.032086
2885.74	0.032686
2897.31	0.034596
2908.89	0.035296
2920.46	0.035586
2932.04	0.037766
2943.61	0.040396
2955.18	0.038226
2966.76	0.032226
2978.33	0.023576
2989.91	0.015166
3001.48	0.008246
3013.05	0.005046
3024.63	0.003696
3036.2	0.003066
3047.78	0.002596
3059.35	0.002256
3070.92	0.001986
3082.5	0.001656
3094.07	0.001416
3105.65	0.0011863
3117.22	0.0009922
3128.79	0.000821
3140.37	0.0007328
3151.94	0.0006572
3163.52	0.0005599
3175.09	0.0004537
3186.66	0.00038877
3198.24	0.00032171
3209.81	0.00035551
3221.39	0.00032745
3232.96	0.0002686
3244.53	0.000209
3256.11	0.0002426
3267.68	0.0002283
3279.26	0.0002251
3290.83	0.000153
3302.4	0.000142
3313.98	0.000137
3325.55	0.0002202
3337.13	0.0004725
3348.7	0.0008773
3360.27	0.0012489
3371.85	0.0009787
3383.42	0.0004697
3395	0.000318273
3406.57	0.0002226
3418.14	9.3e-05
3429.72	0.000101
3441.29	0.000113
3452.86	0.000106
3464.44	4e-05
3476.01	8.2e-05
3487.59	0.00013
3499.16	0.000158
3510.73	7e-05
3522.31	9.5e-05
3533.88	0.000148
3545.46	0
3557.03	7.6e-05
3568.6	8.9e-05
3580.18	0.000113
3591.75	0.000112
3603.33	8.2e-05
3614.9	4.2e-05
3626.47	1e-06
3638.05	9.1e-05
3649.62	5.5e-05
3661.2	6.6e-05
3672.77	9.9e-05
3684.34	3.9e-05
3695.92	0.00011
3707.49	7.3e-05
3719.07	9.1e-05
3730.64	6.3e-05
3742.21	0.000126
3753.79	4.8e-05
3765.36	7.6e-05
3776.94	0.000101
3788.51	0.000115
3800.08	1.5e-05
3811.66	0.000187
3823.23	6e-06
3834.81	0.000105
3846.38	3.9e-05
3857.95	0.000135
3869.53	0.000168
3881.1	8.9e-05
3892.68	0.000212
3904.25	0.0002737
3915.82	0.0002519
3927.4	0.0002245
3938.97	0.0002497
3950.55	0.0002706
3962.12	0.000320019
3973.69	0.00033851
3985.27	0.0002914
3996.84	0.000198
