Infrared Spectrum: MERCAPTOACETAMIDE
Formula: C2 H5 N S O
CAS: 758-08-7
State: SOLID (MINERAL OIL MULL)
Melting point: 54-56 C
Class: COBLENTZ
Instrument: Not specified, most likely a prism, grating, or hybrid spectrometer.
Sampling: TRANSMISSION
Resolution: 4
Origin: ARTHUR D. LITTLE, INC.
MICROMETERS	TRANSMITTANCE
2.517	0.956
2.55324	0.956
2.58947	0.939
2.62571	0.914
2.66194	0.86
2.69818	0.812
2.73442	0.724
2.77065	0.569
2.80689	0.422
2.84312	0.272
2.87936	0.126
2.91559	0.016
2.95183	0.036
2.98807	0.056
3.0243	0.06
3.06054	0.063
3.09677	0.074
3.13301	0.159
3.16925	0.228
3.20548	0.306
3.24172	0.379
3.27795	0.454
3.31419	0.492
3.35043	0.516
3.38666	0.648
3.4229	0.731
3.45913	0.74
3.49537	0.712
3.5316	0.609
3.56784	0.608
3.60408	0.736
3.64031	0.808
3.67655	0.82
3.71278	0.822
3.74902	0.834
3.78526	0.814
3.82149	0.75
3.85773	0.644
3.89396	0.657
3.9302	0.795
3.96644	0.834
4.00267	0.846
4.03891	0.871
4.07514	0.896
4.11138	0.919
4.14761	0.924
4.18385	0.928
4.22009	0.936
4.25632	0.934
4.29256	0.916
4.32879	0.891
4.36503	0.887
4.40127	0.897
4.4375	0.922
4.47374	0.913
4.50997	0.906
4.54621	0.928
4.58245	0.943
4.61868	0.948
4.65492	0.954
4.69115	0.961
4.72739	0.962
4.76362	0.963
4.79986	0.966
4.8361	0.962
4.87233	0.955
4.90857	0.918
4.9448	0.895
4.98104	0.874
5.01728	0.892
5.05351	0.938
5.08975	0.946
5.12598	0.951
5.16222	0.954
5.19846	0.957
5.23469	0.959
5.27093	0.954
5.30716	0.942
5.3434	0.932
5.37963	0.919
5.41587	0.901
5.45211	0.881
5.48834	0.859
5.52458	0.826
5.56081	0.746
5.59705	0.645
5.63329	0.636
5.66952	0.698
5.70576	0.696
5.74199	0.618
5.77823	0.512
5.81447	0.41
5.8507	0.29
5.88694	0.173
5.92317	0.09
5.95941	0.072
5.99564	0.059
6.03188	0.06
6.06812	0.065
6.10435	0.044
6.14059	0.027
6.17682	0.027
6.21306	0.03
6.2493	0.04
6.28553	0.1
6.32177	0.184
6.358	0.238
6.39424	0.298
6.43048	0.362
6.46671	0.384
6.50295	0.397
6.53918	0.398
6.57542	0.398
6.61165	0.398
6.64789	0.384
6.68413	0.362
6.72036	0.343
6.7566	0.345
6.79283	0.309
6.82907	0.29
6.86531	0.278
6.90154	0.259
6.93778	0.207
6.97401	0.168
7.01025	0.108
7.04649	0.077
7.08272	0.085
7.11896	0.113
7.15519	0.101
7.19143	0.05
7.22766	0.018
7.2639	0.031
7.30014	0.126
7.33637	0.171
7.37261	0.193
7.40884	0.22
7.44508	0.23
7.48132	0.25
7.51755	0.268
7.55379	0.281
7.59002	0.293
7.62626	0.354
7.66249	0.422
7.69873	0.48
7.73497	0.531
7.7712	0.56
7.80744	0.566
7.84367	0.569
7.87991	0.566
7.91615	0.474
7.95238	0.345
7.98862	0.236
8.02485	0.173
8.06109	0.326
8.09733	0.521
8.13356	0.54
8.1698	0.556
8.20603	0.568
8.24227	0.56
8.2785	0.53
8.31474	0.461
8.35098	0.401
8.38721	0.44
8.42345	0.56
8.45968	0.601
8.49592	0.636
8.53216	0.651
8.56839	0.677
8.60463	0.696
8.64086	0.708
8.6771	0.72
8.71334	0.728
8.74957	0.73
8.78581	0.731
8.82204	0.725
8.85828	0.697
8.89451	0.667
8.93075	0.631
8.96699	0.585
9.00322	0.544
9.03946	0.5
9.07569	0.442
9.11193	0.395
9.14817	0.363
9.1844	0.446
9.22064	0.573
9.25687	0.644
9.29311	0.698
9.32935	0.721
9.36558	0.749
9.40182	0.762
9.43805	0.772
9.47429	0.778
9.51052	0.792
9.54676	0.795
9.583	0.798
9.61923	0.806
9.65547	0.819
9.6917	0.824
9.72794	0.822
9.76418	0.816
9.80041	0.808
9.83665	0.774
9.87288	0.678
9.90912	0.581
9.94536	0.556
9.98159	0.662
10.0178	0.765
10.0541	0.785
10.0903	0.803
10.1265	0.821
10.1628	0.839
10.199	0.849
10.2352	0.861
10.2715	0.867
10.3077	0.869
10.344	0.872
10.3802	0.875
10.4164	0.875
10.4527	0.877
10.4889	0.877
10.5251	0.877
10.5614	0.877
10.5976	0.875
10.6338	0.873
10.6701	0.871
10.7063	0.867
10.7425	0.867
10.7788	0.869
10.815	0.869
10.8513	0.867
10.8875	0.862
10.9237	0.861
10.96	0.857
10.9962	0.854
11.0324	0.851
11.0687	0.848
11.1049	0.845
11.1411	0.843
11.1774	0.825
11.2136	0.796
11.2498	0.774
11.2861	0.779
11.3223	0.787
11.3586	0.795
11.3948	0.8
11.431	0.803
11.4673	0.807
11.5035	0.807
11.5397	0.803
11.576	0.8
11.6122	0.792
11.6484	0.777
11.6847	0.763
11.7209	0.748
11.7571	0.73
11.7934	0.712
11.8296	0.689
11.8659	0.662
11.9021	0.615
11.9383	0.604
11.9746	0.612
12.0108	0.632
12.047	0.66
12.0833	0.678
12.1195	0.666
12.1557	0.602
12.192	0.534
12.2282	0.472
12.2645	0.418
12.3007	0.407
12.3369	0.443
12.3732	0.489
12.4094	0.522
12.4456	0.543
12.4819	0.544
12.5181	0.551
12.5543	0.556
12.5906	0.557
12.6268	0.554
12.663	0.55
12.6993	0.537
12.7355	0.518
12.7718	0.486
12.808	0.428
12.8442	0.361
12.8805	0.302
12.9167	0.25
12.9529	0.183
12.9892	0.14
13.0254	0.098
13.0616	0.095
13.0979	0.119
13.1341	0.185
13.1703	0.259
13.2066	0.324
13.2428	0.372
13.2791	0.402
13.3153	0.431
13.3515	0.457
13.3878	0.472
13.424	0.481
13.4602	0.487
13.4965	0.486
13.5327	0.484
13.5689	0.484
13.6052	0.468
13.6414	0.457
13.6777	0.454
13.7139	0.44
13.7501	0.438
13.7864	0.433
13.8226	0.427
13.8588	0.427
13.8951	0.431
13.9313	0.433
13.9675	0.432
14.0038	0.432
14.04	0.436
14.0762	0.439
14.1125	0.444
14.1487	0.448
14.185	0.451
14.2212	0.453
14.2574	0.456
14.2937	0.456
14.3299	0.455
14.3661	0.455
14.4024	0.456
14.4386	0.455
14.4748	0.455
14.5111	0.457
14.5473	0.46
14.5835	0.461
14.6198	0.466
14.656	0.466
14.6923	0.466
14.7285	0.465
14.7647	0.465
14.801	0.465
14.8372	0.467
14.8734	0.469
14.9097	0.474
14.9459	0.475
14.9821	0.473
