Infrared Spectrum: Thiophene, 3-methyl-
Formula: C 5 H 6 S
CAS: 616-44-4
State: gas
Origin: Sadtler Research Labs Under US-EPA Contract
1/CM	ABSORBANCE
450	0.00297376
462	0.00762835
474	0.00711117
486	0.00310306
498	0.00323235
510	0.00724046
522	0.00594752
534	0.0124122
546	0.00917987
558	0.0143516
570	0.0608975
582	0.122959
594	0.405078
606	0.135242
618	0.066845
630	0.0148688
642	0.0117658
654	0.0312891
666	0.0629662
678	0.188899
690	0.0938674
702	0.049261
714	0.0236608
726	0.0718875
738	0.339914
750	0.625266
762	1.15524
774	0.705816
786	0.284447
798	0.049261
810	0.0259881
822	0.116106
834	0.180365
846	0.268026
858	0.248115
870	0.268673
882	0.0343922
894	0.0128001
906	0.0173254
918	0.0517176
930	0.0628369
942	0.0543035
954	0.0104728
966	0.016291
978	0.0376246
990	0.0565015
1002	0.05495
1014	0.0173254
1026	0.0128001
1038	0.0218507
1050	0.0212042
1062	0.033875
1074	0.0687844
1086	0.0574065
1098	0.0330993
1110	0.0122829
1122	0.00969705
1134	0.0178426
1146	0.0402104
1158	0.0283154
1170	0.0266346
1182	0.0102142
1194	0.0086627
1206	0.00930917
1218	0.0186183
1230	0.0471923
1242	0.0453822
1254	0.0312891
1266	0.0170668
1278	0.0120243
1290	0.00879199
1302	0.00801623
1314	0.0102142
1326	0.0149981
1338	0.0244366
1350	0.0365902
1362	0.0596045
1374	0.0852047
1386	0.127613
1398	0.148042
1410	0.101625
1422	0.127613
1434	0.127484
1446	0.188381
1458	0.140413
1470	0.11908
1482	0.0682672
1494	0.0377538
1506	0.0393054
1518	0.0571479
1530	0.117787
1542	0.158256
1554	0.123088
1566	0.0451236
1578	0.0173254
1590	0.013188
1602	0.0107314
1614	0.013188
1626	0.0222386
1638	0.0193941
1650	0.0116365
1662	0.00724046
1674	0.00491317
1686	0.00142223
1698	0.0020687
1710	0.00594752
1722	0.0115072
1734	0.0234022
1746	0.0230143
1758	0.0248244
1770	0.00995564
1782	0.00491317
1794	0.00336164
1806	0.00452529
1818	0.00297376
1830	0.00155153
1842	0.00103435
1854	0.00129294
1866	0.000905058
1878	0.000905058
1890	0.00142223
1902	0.0020687
1914	0.00297376
1926	0.00400811
1938	0.00452529
1950	0.00323235
1962	0.00155153
1974	0.00155153
1986	0.00245659
1998	0.00478388
2010	0.00555964
2022	0.00594752
2034	0.00336164
2046	0.00323235
2058	0.004396
2070	0.00465458
2082	0.00465458
2094	0.00323235
2106	0.00232729
2118	0.00142223
2130	0.00168082
2142	0.00374953
2154	0.00788693
2166	0.00724046
2178	0.00568894
2190	0.00245659
2202	0.002198
2214	0.00310306
2226	0.00478388
2238	0.00530105
2250	0.00543035
2262	0.00465458
2274	0.00400811
2286	0.00374953
2298	0.00491317
2310	0.00633541
2322	0.00543035
2334	0.004396
2346	0.00659399
2358	0.00400811
2370	0.0100849
2382	0.00801623
2394	0.00413741
2406	0.00362023
2418	0.00232729
2430	0.00232729
2442	0.00374953
2454	0.00452529
2466	0.00517176
2478	0.00413741
2490	0.00323235
2502	0.00181012
2514	0.00142223
2526	0.00284447
2538	0.00245659
2550	0.0020687
2562	0.000905058
2574	0.000775764
2586	0.000258588
2598	0.000517176
2610	0.000517176
2622	0.000905058
2634	0.000905058
2646	0.000129294
2658	0
2670	0.000129294
2682	0.000258588
2694	0.000775764
2706	0.00142223
2718	0.00297376
2730	0.00917987
2742	0.0166789
2754	0.0166789
2766	0.0103435
2778	0.00930917
2790	0.00956776
2802	0.0139638
2814	0.0166789
2826	0.0205577
2838	0.0275396
2850	0.0413741
2862	0.0863684
2874	0.180882
2886	0.217085
2898	0.198466
2910	0.175711
2922	0.231307
2934	0.370557
2946	0.381417
2958	0.259881
2970	0.204802
2982	0.181529
2994	0.145456
3006	0.083136
3018	0.0683965
3030	0.0830067
3042	0.0871442
3054	0.10253
3066	0.109512
3078	0.104082
3090	0.0753784
3102	0.0517176
3114	0.0408569
3126	0.026376
3138	0.0104728
3150	0.00336164
3162	0.00103435
3174	0.00232729
3186	0.002198
3198	0.00181012
3210	0.000905058
3222	0.000129294
3234	0.000517176
3246	0
3258	0
3270	0.000775764
3282	0.000775764
3294	0.002198
3306	0.00181012
3318	0.0020687
3330	0.000517176
3342	0.00064647
3354	0.00155153
3366	0.00142223
3378	0.00129294
3390	0.00103435
3402	0.00142223
3414	0.00142223
3426	0.00103435
3438	0.00103435
3450	0.000905058
3462	0.000905058
3474	0.00155153
3486	0.00064647
3498	0.00103435
3510	0.00103435
3522	0.00129294
3534	0.00232729
3546	0.00168082
3558	0.00168082
3570	0.00181012
3582	0.00181012
3594	0.00245659
3606	0.00181012
3618	0.00232729
3630	0.00258588
3642	0.00530105
3654	0.00543035
3666	0.00517176
3678	0.00232729
3690	0.00284447
3702	0.00232729
3714	0.00387882
3726	0.00491317
3738	0.00620611
3750	0.00530105
3762	0.00594752
3774	0.0064647
3786	0.00620611
3798	0.00284447
3810	0.00297376
3822	0.00232729
3834	0.00245659
3846	0.00297376
3858	0.00362023
3870	0.00297376
3882	0.00258588
3894	0.00362023
3906	0.00284447
3918	0.00323235
3930	0.00297376
3942	0.00491317
3954	0.00568894
3966	0.00607682
