Infrared Spectrum: Disulfide, diethyl
Formula: C 4 H 10 S 2
CAS: 110-81-6
State: gas
Origin: Sadtler Research Labs Under US-EPA Contract
1/CM	ABSORBANCE
450	0.0500198
462	0.0133189
474	0.0173441
486	0.0116614
498	0.0111287
510	0.0137924
522	0.0146804
534	0.0149763
546	0.0127269
558	0.00970798
570	0.0179953
582	0.0164562
594	0.0101815
606	0.0136148
618	0.0132005
630	0.0151539
642	0.0205407
654	0.0150947
666	0.0113654
678	0.0130821
690	0.0130821
702	0.0118982
714	0.0119574
726	0.0140884
738	0.0178769
750	0.0410221
762	0.0624507
774	0.0453434
786	0.0249211
798	0.0174625
810	0.0138516
822	0.0101223
834	0.0109511
846	0.00799133
858	0.00793213
870	0.009412
882	0.00793213
894	0.00716259
906	0.00805052
918	0.00781374
930	0.009412
942	0.0150355
954	0.034925
966	0.0681334
978	0.0652329
990	0.0287688
1002	0.0197119
1014	0.0176401
1026	0.0232636
1038	0.0407854
1050	0.0512037
1062	0.0266969
1074	0.0111879
1086	0.00964879
1098	0.00781374
1110	0.00799133
1122	0.00870166
1134	0.00911603
1146	0.0094712
1158	0.00935281
1170	0.00876086
1182	0.00964879
1194	0.0104183
1206	0.0133781
1218	0.0217838
1230	0.0621547
1242	0.21689
1254	0.327171
1266	0.197652
1278	0.0907459
1290	0.0628651
1302	0.0328532
1314	0.0216062
1326	0.018528
1338	0.0170482
1350	0.0194752
1362	0.0342147
1374	0.0698501
1386	0.0882006
1398	0.0551697
1410	0.0515588
1422	0.0733426
1434	0.0896212
1446	0.128572
1458	0.143548
1470	0.0985005
1482	0.0502566
1494	0.0259274
1506	0.01912
1518	0.0164562
1530	0.0139108
1542	0.0124309
1554	0.0117798
1566	0.0113062
1578	0.0104775
1590	0.0110695
1602	0.011839
1614	0.0125493
1626	0.0121942
1638	0.0116022
1650	0.0108919
1662	0.0110103
1674	0.0101223
1686	0.00899764
1698	0.00893844
1710	0.00775454
1722	0.00686662
1734	0.0070442
1746	0.00651145
1758	0.00728098
1770	0.00816891
1782	0.00852408
1794	0.0082873
1806	0.00698501
1818	0.00627467
1830	0.0059195
1842	0.00509077
1854	0.00544594
1866	0.00574192
1878	0.00621547
1890	0.00633387
1902	0.00627467
1914	0.00621547
1926	0.00692582
1938	0.00668903
1950	0.00609708
1962	0.00550513
1974	0.00609708
1986	0.00645225
1998	0.00781374
2010	0.00698501
2022	0.00455801
2034	0.00384768
2046	0.00509077
2058	0.00461721
2070	0.00396606
2082	0.00680742
2094	0.00734018
2106	0.00609708
2118	0.00562352
2130	0.0058603
2142	0.00615628
2154	0.0059787
2166	0.00757696
2178	0.00846489
2190	0.00686662
2202	0.0070442
2214	0.00858327
2226	0.00858327
2238	0.00751777
2250	0.00645225
2262	0.00556433
2274	0.00526835
2286	0.00544594
2298	0.0059787
2310	0.0071034
2322	0.00633387
2334	0.00550513
2346	0.00514997
2358	0.0070442
2370	0.00136148
2382	0.00337412
2394	0.00514997
2406	0.00657064
2418	0.00846489
2430	0.00805052
2442	0.00503157
2454	0.00396606
2466	0.0046764
2478	0.00544594
2490	0.00455801
2502	0.00284136
2514	0.00106551
2526	0.000769535
2538	0.00082873
2550	0.000651145
2562	0.00059195
2574	0.000769535
2586	0.00011839
2598	0.00047356
2610	0.00201263
2622	0.0034925
2634	0.00461721
2646	0.00509077
2658	0.00899764
2670	0.0111287
2682	0.0106551
2694	0.0105959
2706	0.0102407
2718	0.00899764
2730	0.0101223
2742	0.0106551
2754	0.00787293
2766	0.00657064
2778	0.00781374
2790	0.010004
2802	0.0130821
2814	0.0240924
2826	0.0429756
2838	0.0487175
2850	0.0452842
2862	0.0678375
2874	0.1574
2886	0.231571
2898	0.191555
2910	0.204578
2922	0.301007
2934	0.495403
2946	0.464799
2958	0.303552
2970	0.491792
2982	0.567621
2994	0.322672
3006	0.116377
3018	0.0575967
3030	0.0438043
3042	0.0311958
3054	0.0239148
3066	0.0181729
3078	0.0147987
3090	0.0127269
3102	0.0107735
3114	0.0101815
3126	0.0108919
3138	0.00982637
3150	0.0116614
3162	0.0129045
3174	0.0117206
3186	0.0113062
3198	0.00911603
3210	0.00757696
3222	0.00680742
3234	0.00686662
3246	0.0058603
3258	0.00307814
3270	0.00449882
3282	0.0071034
3294	0.00556433
3306	0.00633387
3318	0.00503157
3330	0.00461721
3342	0.00461721
3354	0.0034925
3366	0.00301894
3378	0.00313733
3390	0.00094712
3402	0.00266377
3414	0.00331492
3426	0.00195343
3438	0.00189424
3450	0.00213102
3462	0.00372928
3474	0.00301894
3486	0.00254538
3498	0.00343331
3510	0.00402526
3522	0.000887925
3534	0.0023678
3546	0.00432123
3558	0.00438043
3570	0.00414365
3582	0.00420285
3594	0.0047948
3606	0.00301894
3618	0.00426204
3630	0.00361089
3642	0.00331492
3654	0.00532755
3666	0.00337412
3678	0.00408445
3690	0.00378848
3702	0.00574192
3714	0.00307814
3726	0.0047948
3738	0.00367009
3750	0.00426204
3762	0.0046764
3774	0.00183504
3786	0.00071034
3798	0.00295975
3810	0.000414365
3822	0.00219022
3834	0.00520916
3846	0.00260458
3858	0.00372928
3870	0.00390687
3882	0.0034925
3894	0.00491318
3906	0.00278217
3918	0.00520916
3930	0.00769535
3942	0.00266377
3954	0.00556433
3966	0.00520916
