Infrared Spectrum: Propane, 2-bromo-1-chloro-
Formula: C 3 H 6 Br Cl
CAS: 3017-95-6
State: gas
Origin: Sadtler Research Labs Under US-EPA Contract
1/CM	ABSORBANCE
450	0.00122618
462	0.00887922
474	0.00410135
486	0.0229168
498	0.0224095
510	0.0180967
522	0.00710338
534	0.00972486
546	0.023086
558	0.0305276
570	0.0322612
582	0.0355592
594	0.102661
606	0.362272
618	0.378212
630	0.118855
642	0.0645223
654	0.0135725
666	0.0174625
678	0.021437
690	0.0148833
702	0.019492
714	0.0756002
726	0.295678
738	0.332506
750	0.0576726
762	0.0553049
774	0.0263417
786	0.0157712
798	0.00980942
810	0.00613089
822	0.00355169
834	0.00803358
846	0.00989399
858	0.0126
870	0.0143336
882	0.0158557
894	0.0298511
906	0.0447766
918	0.0424088
930	0.0154329
942	0.00947117
954	0.00731479
966	0.00968258
978	0.0119658
990	0.0369122
1002	0.170566
1014	0.181009
1026	0.0487934
1038	0.0185195
1050	0.0318806
1062	0.0713297
1074	0.0701458
1086	0.0154752
1098	0.0119658
1110	0.0158557
1122	0.0201262
1134	0.0173356
1146	0.0354323
1158	0.135006
1170	0.310646
1182	0.209803
1194	0.0355592
1206	0.0370813
1218	0.0978828
1230	0.113527
1242	0.0822385
1254	0.0810123
1266	0.0884539
1278	0.071668
1290	0.0330645
1302	0.0158557
1314	0.0224517
1326	0.0363625
1338	0.0436773
1350	0.0298088
1362	0.0238048
1374	0.0654525
1386	0.102026
1398	0.0876506
1410	0.0288363
1422	0.0289209
1434	0.0840566
1446	0.14731
1458	0.137755
1470	0.0805049
1482	0.0304008
1494	0.00837184
1506	0.00553894
1518	0.00359397
1530	0.00380538
1542	0.00291746
1554	0.0030443
1566	0.00291746
1578	0.00143759
1590	0.00194497
1602	0.00101477
1614	0.00342484
1626	0.0030443
1638	0.00410135
1650	0.00245236
1662	0.00262148
1674	0.0042282
1686	0.00393223
1698	0.00388994
1710	0.00156443
1722	0.00334028
1734	0.00308659
1746	0.00350941
1758	0.00219866
1770	0.00198725
1782	0.00143759
1794	0.00109933
1806	0.00173356
1818	0.000507384
1830	0.00126846
1842	0.000676512
1854	0.00169128
1866	0.00186041
1878	0.00190269
1890	0.00122618
1902	0.000803358
1914	0.00131074
1926	0.00042282
1938	0.00147987
1950	0.00042282
1962	0.00101477
1974	0.000887922
1986	0.00177584
1998	0.00156443
2010	0.00147987
2022	0.00160672
2034	0.000803358
2046	0.00126846
2058	0
2070	0.00194497
2082	0.00152215
2094	0.000549666
2106	0.000507384
2118	0.000676512
2130	0.00139531
2142	0.000718794
2154	0.00186041
2166	0.00101477
2178	0.00253692
2190	0.00160672
2202	0.00194497
2214	0.00169128
2226	0.00186041
2238	0.00317115
2250	0.00236779
2262	0.00346712
2274	0.00287518
2286	0.00465102
2298	0.00532753
2310	0.00642686
2322	0.00558122
2334	0.00460874
2346	0.00570807
2358	0.00503156
2370	0.00731479
2382	0.0030443
2394	0.00241007
2406	0.00122618
2418	0.00147987
2430	0.00207182
2442	0.00291746
2454	0.00405907
2466	0.00249464
2478	0.00241007
2490	0.00139531
2502	0.00317115
2514	0.00236779
2526	0.00181813
2538	0.00109933
2550	0.00084564
2562	0.00219866
2574	0.000591948
2586	0.00186041
2598	0.000507384
2610	0.000803358
2622	0.00101477
2634	0.00160672
2646	0.001649
2658	0.000465102
2670	0.00384766
2682	0.00283289
2694	0.0030443
2706	0.00114161
2718	0.00291746
2730	0.0025792
2742	0.0042282
2754	0.00498928
2766	0.00224095
2778	0.0021141
2790	0.00177584
2802	0.00279061
2814	0.00334028
2826	0.00786445
2838	0.00925976
2850	0.0125155
2862	0.0217752
2874	0.0413941
2886	0.0454531
2898	0.0334451
2910	0.0345021
2922	0.0514572
2934	0.0942043
2946	0.120631
2958	0.108115
2970	0.108284
2982	0.179191
2994	0.244179
3006	0.161855
3018	0.0733593
3030	0.0291323
3042	0.0128114
3054	0.00528525
3066	0.0046933
3078	0.00511612
3090	0.00452417
3102	0.00604633
3114	0.00228323
3126	0.0046933
3138	0.00312887
3150	0.00439733
3162	0.00397451
3174	0.00448189
3186	0.0042282
3198	0.00490471
3210	0.00672284
3222	0.00490471
3234	0.00731479
3246	0.00443961
3258	0.00372082
3270	0.00486243
3282	0.00431276
3294	0.00460874
3306	0.00287518
3318	0.00241007
3330	0.00177584
3342	0.00414364
3354	0.00177584
3366	0.00190269
3378	0.00139531
3390	0.00418592
3402	0.00308659
3414	0.00160672
3426	0.0046933
3438	0.00338256
3450	0.00291746
3462	0.00270605
3474	0.00427048
3486	0.00232551
3498	0.00317115
3510	0.00439733
3522	0.00245236
3534	0.00312887
3546	0.00249464
3558	0.00367853
3570	0.00198725
3582	0.00427048
3594	0.00439733
3606	0.00241007
3618	0.00545438
3630	0.00308659
3642	0.00536981
3654	0.00224095
3666	0.00604633
3678	0.00507384
3690	0.00346712
3702	0.00486243
3714	0.00748391
3726	0.00549666
3738	0.00405907
3750	0.00706109
3762	0.003298
3774	0.00646915
3786	0.00477787
3798	0.00452417
3810	0.00350941
3822	0.00418592
3834	0.00701881
3846	0.00503156
3858	0.00803358
3870	0.00731479
3882	0.00718794
3894	0.00731479
3906	0.00266377
3918	0.00841412
3930	0.00520069
3942	0.00862553
3954	0.00473558
3966	0.00689197
