Infrared Spectrum: 1-Hexyne
Formula: C 6 H 10
CAS: 693-02-7
State: gas
Instrument: HP-GC/MS/IRD
Origin: NIST Mass Spectrometry Data Center
1/CM	ABSORBANCE
550	0.0016686
562	0.0008802
574	0.0008586
586	0.0010476
598	0.0026244
610	0.008262
622	0.0251856
634	0.054
646	0.0251154
658	0.0068904
670	0.0019548
682	0.0006912
694	0.0004158
706	0.0003888
718	0.0004374
730	0.000837
742	0.0008586
754	0.0008262
766	0.0005886
778	0.0004158
790	0.0003726
802	0.0003726
814	0.000162
826	0.000189
838	8.64e-05
850	2.7e-05
862	4.86e-05
874	0.0001458
886	0.0002052
898	0.000216
910	0.0002592
922	0.000324
934	0.0003564
946	0.0003294
958	0.0001836
970	0.0001296
982	0.0001296
994	0.000135
1006	0.0001188
1018	7.02e-05
1030	5.4e-05
1042	7.02e-05
1054	7.02e-05
1066	0.0001188
1078	0.0002214
1090	0.000513
1102	0.0006696
1114	0.000513
1126	0.0002916
1138	0.0001404
1150	0.0001242
1162	6.48e-05
1174	0.0001728
1186	0.00027
1198	0.0005022
1210	0.0009126
1222	0.0021276
1234	0.0070524
1246	0.0108702
1258	0.0100764
1270	0.0035208
1282	0.001701
1294	0.0014688
1306	0.0017064
1318	0.0021492
1330	0.002214
1342	0.0020466
1354	0.0016524
1366	0.001566
1378	0.0018846
1390	0.0019116
1402	0.0014634
1414	0.0015282
1426	0.0026892
1438	0.0042174
1450	0.0052056
1462	0.005049
1474	0.0038826
1486	0.002457
1498	0.0013446
1510	0.000756
1522	0.0005076
1534	0.0003888
1546	0.0003132
1558	0.0002916
1570	0.000216
1582	0.000162
1594	0.0001836
1606	0.000135
1618	0.0001188
1630	0.0001458
1642	0.0001296
1654	9.72e-05
1666	7.02e-05
1678	8.64e-05
1690	6.48e-05
1702	5.4e-05
1714	3.78e-05
1726	2.16e-05
1738	4.32e-05
1750	3.24e-05
1762	4.86e-05
1774	3.78e-05
1786	3.24e-05
1798	2.7e-05
1810	2.7e-05
1822	1.08e-05
1834	2.16e-05
1846	4.32e-05
1858	4.32e-05
1870	4.32e-05
1882	7.02e-05
1894	3.78e-05
1906	4.32e-05
1918	5.4e-06
1930	2.16e-05
1942	2.16e-05
1954	3.24e-05
1966	1.62e-05
1978	1.08e-05
1990	2.16e-05
2002	2.7e-05
2014	4.86e-05
2026	0.0001188
2038	0.0001296
2050	0.000135
2062	0.0001458
2074	0.0002646
2086	0.0005076
2098	0.001242
2110	0.0021762
2122	0.0023328
2134	0.001323
2146	0.0003564
2158	0.0001782
2170	0.0001242
2182	0.0001026
2194	9.72e-05
2206	7.02e-05
2218	7.02e-05
2230	8.64e-05
2242	8.64e-05
2254	0.0001026
2266	8.64e-05
2278	7.56e-05
2290	5.4e-05
2302	5.94e-05
2314	7.56e-05
2326	3.78e-05
2338	8.1e-05
2350	5.94e-05
2362	0.000108
2374	0.0001404
2386	0.0001404
2398	0.0001188
2410	5.94e-05
2422	7.56e-05
2434	6.48e-05
2446	4.86e-05
2458	5.4e-05
2470	4.32e-05
2482	4.32e-05
2494	4.32e-05
2506	4.86e-05
2518	5.4e-05
2530	8.1e-05
2542	8.1e-05
2554	0.000108
2566	0.0001458
2578	0.0001242
2590	0.0001404
2602	0.0001404
2614	0.0001566
2626	0.0002376
2638	0.0003186
2650	0.0004212
2662	0.0004914
2674	0.0005292
2686	0.0005724
2698	0.0006426
2710	0.0004644
2722	0.000459
2734	0.0006048
2746	0.000729
2758	0.000783
2770	0.000729
2782	0.0008478
2794	0.0010584
2806	0.001377
2818	0.0018522
2830	0.0028404
2842	0.0047844
2854	0.0079596
2866	0.0121986
2878	0.016254
2890	0.016011
2902	0.01539
2914	0.0195912
2926	0.029214
2938	0.0386208
2950	0.041175
2962	0.0383832
2974	0.0306018
2986	0.018387
2998	0.008073
3010	0.0040176
3022	0.0025488
3034	0.0020034
3046	0.0017172
3058	0.001431
3070	0.001188
3082	0.0010314
3094	0.000918
3106	0.0008046
3118	0.0006912
3130	0.0006048
3142	0.0005238
3154	0.0004266
3166	0.0004104
3178	0.0003726
3190	0.0003402
3202	0.000324
3214	0.0003186
3226	0.0003726
3238	0.0004428
3250	0.0005724
3262	0.0008856
3274	0.0017334
3286	0.0030672
3298	0.0067986
3310	0.009936
3322	0.0172854
3334	0.0156222
3346	0.006669
3358	0.0026028
3370	0.0011772
3382	0.0004374
3394	0.0002376
3406	0.0002322
3418	0.0001188
3430	0.0001134
3442	0.0001404
3454	9.18e-05
3466	9.18e-05
3478	0.0001566
3490	0.0001134
3502	4.86e-05
3514	4.32e-05
3526	7.02e-05
3538	3.24e-05
3550	0
3562	8.64e-05
3574	2.16e-05
3586	3.78e-05
3598	5.4e-06
3610	9.18e-05
3622	8.1e-05
3634	3.24e-05
3646	0.0001134
3658	0.0001188
3670	0.000162
3682	0.0001404
3694	0.0001296
3706	9.18e-05
3718	8.64e-05
3730	8.64e-05
3742	0.0001404
3754	7.02e-05
3766	0.0001512
3778	0.000108
3790	5.94e-05
3802	9.72e-05
3814	0.0001188
3826	0.0001242
3838	8.1e-05
