Infrared Spectrum: 2,3-Dihydrofuran
Formula: C 4 H 6 O
CAS: 1191-99-7
State: gas
Instrument: HP-GC/MS/IRD
Origin: NIST Mass Spectrometry Data Center
1/CM	ABSORBANCE
550	0.0002641
562	0
574	0.0001748
586	0.0002964
598	0.000399
610	0.0004332
622	0.0003743
634	0.000551
646	0.0010545
658	0.0021983
670	0.0043111
682	0.0059641
694	0.0070224
706	0.0142272
718	0.0066329
730	0.006194
742	0.0035397
754	0.0019285
766	0.001463
778	0.0012635
790	0.0011229
802	0.0013623
814	0.0015979
826	0.0018278
838	0.0021508
850	0.0024909
862	0.0028082
874	0.0034998
886	0.0062529
898	0.0088274
910	0.0140467
922	0.0137446
934	0.0134425
946	0.005187
958	0.0025194
970	0.0020653
982	0.0022762
994	0.0023199
1006	0.0030571
1018	0.00342
1030	0.0061161
1042	0.0125324
1054	0.0144115
1066	0.0151639
1078	0.013509
1090	0.0068096
1102	0.0040755
1114	0.0076361
1126	0.0114646
1138	0.0126179
1150	0.012939
1162	0.0094449
1174	0.0044156
1186	0.0033573
1198	0.0020292
1210	0.0017936
1222	0.0017556
1234	0.0017138
1246	0.0022952
1258	0.0028842
1270	0.0030628
1282	0.0029526
1294	0.0021831
1306	0.001178
1318	0.0007429
1330	0.0006916
1342	0.0007695
1354	0.0010336
1366	0.0011761
1378	0.0014364
1390	0.0015428
1402	0.0012198
1414	0.0009557
1426	0.0008626
1438	0.0007486
1450	0.0006878
1462	0.0006821
1474	0.0006251
1486	0.0004902
1498	0.0004427
1510	0.0003857
1522	0.0003553
1534	0.0005187
1546	0.0010127
1558	0.0020938
1570	0.0035302
1582	0.0055784
1594	0.0089566
1606	0.0105412
1618	0.009785
1630	0.0087039
1642	0.0051775
1654	0.0015542
1666	0.0006365
1678	0.000418
1690	0.0003496
1702	0.0003116
1714	0.0003743
1726	0.0005168
1738	0.0007372
1750	0.0009576
1762	0.000969
1774	0.0008854
1786	0.0007258
1798	0.0004522
1810	0.0003876
1822	0.0003724
1834	0.0004066
1846	0.0003895
1858	0.0003021
1870	0.0002622
1882	0.0002755
1894	0.0002755
1906	0.0003325
1918	0.0002793
1930	0.0003249
1942	0.0003591
1954	0.0004731
1966	0.000475
1978	0.0005168
1990	0.0004294
2002	0.0003667
2014	0.0002584
2026	0.0002774
2038	0.0002546
2050	0.0002603
2062	0.0002964
2074	0.0002698
2086	0.000304
2098	0.0003724
2110	0.0004047
2122	0.0003648
2134	0.0003363
2146	0.0002394
2158	0.0002242
2170	0.0003078
2182	0.0003553
2194	0.0003534
2206	0.0003857
2218	0.0003116
2230	0.0002641
2242	0.0001691
2254	0.0002204
2266	0.0002394
2278	0.0002907
2290	0.0002261
2302	0.0001824
2314	0.0001007
2326	5.13e-05
2338	5.51e-05
2350	9.69e-05
2362	3.8e-05
2374	8.36e-05
2386	7.41e-05
2398	7.98e-05
2410	7.22e-05
2422	8.93e-05
2434	6.46e-05
2446	6.65e-05
2458	0
2470	1.9e-05
2482	4.94e-05
2494	7.79e-05
2506	9.5e-05
2518	5.51e-05
2530	0.0001026
2542	5.7e-05
2554	9.69e-05
2566	6.46e-05
2578	4.37e-05
2590	7.79e-05
2602	0.0001007
2614	0.0001064
2626	7.79e-05
2638	0.0002147
2650	0.0002793
2662	0.0003477
2674	0.00038
2686	0.0004256
2698	0.0003249
2710	0.0003059
2722	0.0003838
2734	0.0004313
2746	0.0005833
2758	0.0006023
2770	0.0006099
2782	0.0006669
2794	0.0007638
2806	0.0009348
2818	0.0011951
2830	0.0018126
2842	0.0029165
2854	0.0051205
2866	0.0066671
2878	0.00855
2890	0.0101004
2902	0.0099579
2914	0.0106191
2926	0.0125343
2938	0.0130625
2950	0.0140125
2962	0.0182723
2974	0.0118674
2986	0.0092359
2998	0.0062681
3010	0.0032205
3022	0.0017917
3034	0.0012103
3046	0.0009652
3058	0.0008664
3070	0.0009253
3082	0.0012331
3094	0.0017822
3106	0.002052
3118	0.0019209
3130	0.0016435
3142	0.0008322
3154	0.0003477
3166	0.0002071
3178	0.0001406
3190	0.0001235
3202	0.0001957
3214	0.0002812
3226	0.000266
3238	0.0002641
3250	0.0001862
3262	5.32e-05
3274	0.0001083
3286	7.6e-05
3298	5.51e-05
3310	9.31e-05
3322	9.88e-05
3334	1.9e-06
3346	0.0001482
3358	0.0001007
3370	6.65e-05
3382	0.0001653
3394	9.5e-05
3406	0.0001045
3418	5.13e-05
3430	8.17e-05
3442	0.0001292
3454	8.74e-05
3466	0.0001577
3478	9.12e-05
3490	6.27e-05
3502	0.0001273
3514	0.0001216
3526	5.32e-05
3538	0.0001273
3550	0.0001159
3562	0.0001254
3574	9.88e-05
3586	1.71e-05
3598	0.0001007
3610	0.0001615
3622	0.0001064
3634	0.0001824
3646	9.5e-05
3658	0.000171
3670	4.18e-05
3682	2.66e-05
3694	8.36e-05
3706	0.0001406
3718	4.18e-05
3730	9.69e-05
3742	0.0001463
3754	4.94e-05
3766	0.0001121
3778	8.93e-05
3790	0.0001064
3802	0.0001577
3814	0.0001254
3826	0.0001805
3838	0.0001235
