Infrared Spectrum: Methane, triiodo-
Formula: C H I 3
CAS: 75-47-8
State: gas
Origin: Sadtler Research Labs Under US-EPA Contract
1/CM	ABSORBANCE
450	0.00304688
462	0.00289454
474	0.00472266
486	0.00906447
498	0.00632228
510	0.0125684
522	0.00799806
534	0.00586524
546	0.00228516
558	0.0144727
570	0.023918
582	0.0233848
594	0.0180528
606	0.0355723
618	0.0272696
630	0.0121875
642	0.0113496
654	0.0152344
666	0.0160723
678	0.0241465
690	0.0242227
702	0.0249844
714	0.0136348
726	0.0188145
738	0.0179004
750	0.0184336
762	0.0162246
774	0.0258985
786	0.0534727
798	0.104813
810	0.227983
822	0.235067
834	0.101842
846	0.062461
858	0.0411329
870	0.032754
882	0.0266602
894	0.0191953
906	0.0177481
918	0.0170625
930	0.0172149
942	0.0142442
954	0.0148535
966	0.0147774
978	0.0160723
990	0.0304688
1002	0.103746
1014	0.388706
1026	0.76172
1038	0.400055
1050	0.109764
1062	0.105346
1074	0.129721
1086	0.154629
1098	0.128807
1110	0.138328
1122	0.066879
1134	0.0329063
1146	0.0228516
1158	0.0178242
1170	0.00997853
1182	0.0076172
1194	0.0125684
1206	0.0076172
1218	0.0124922
1230	0.0152344
1242	0.020795
1254	0.069545
1266	0.208711
1278	0.0541583
1290	0.016834
1302	0.0126446
1314	0.00875978
1326	0.0076172
1338	0.00647462
1350	0.00677931
1362	0.0057129
1374	0.00716017
1386	0.00822658
1398	0.0105117
1410	0.0130254
1422	0.0103594
1434	0.00914064
1446	0.00906447
1458	0.00746486
1470	0.00632228
1482	0.00540821
1494	0.00540821
1506	0.00738868
1518	0.00746486
1530	0.00868361
1542	0.0101309
1554	0.00944533
1566	0.00738868
1578	0.00556056
1590	0.00601759
1602	0.00769337
1614	0.00830275
1626	0.00792189
1638	0.00776954
1650	0.00525587
1662	0.00304688
1674	0.0024375
1686	0.0024375
1698	0.00258985
1710	0.00365626
1722	0.0038086
1734	0.0051797
1746	0.00479884
1758	0.00457032
1770	0.0038086
1782	0.00304688
1794	0.00373243
1806	0.00365626
1818	0.00365626
1830	0.0043418
1842	0.00441798
1854	0.00441798
1866	0.00411329
1878	0.00426563
1890	0.00350391
1902	0.00319922
1914	0.00418946
1926	0.00411329
1938	0.0043418
1950	0.00495118
1962	0.00479884
1974	0.00411329
1986	0.00335157
1998	0.0032754
2010	0.00319922
2022	0.00297071
2034	0.00411329
2046	0.00388477
2058	0.00457032
2070	0.00472266
2082	0.00449415
2094	0.00388477
2106	0.00365626
2118	0.00365626
2130	0.00350391
2142	0.00350391
2154	0.00388477
2166	0.0043418
2178	0.00358008
2190	0.00388477
2202	0.00365626
2214	0.00289454
2226	0.00281836
2238	0.00289454
2250	0.00289454
2262	0.00319922
2274	0.00258985
2286	0.0024375
2298	0.00175196
2310	0.00167578
2322	0.00114258
2334	0.00205664
2346	0.0019043
2358	0.00319922
2370	0.00723634
2382	0.00396094
2394	0.00228516
2406	0.00198047
2418	0.00144727
2430	0.00144727
2442	0.00205664
2454	0.00213282
2466	0.00274219
2478	0.00258985
2490	0.00319922
2502	0.00251368
2514	0.00167578
2526	0.00205664
2538	0.00152344
2550	0.00198047
2562	0.0024375
2574	0.0024375
2586	0.00266602
2598	0.00281836
2610	0.00236133
2622	0.00251368
2634	0.00198047
2646	0.00258985
2658	0.00236133
2670	0.00319922
2682	0.00304688
2694	0.00365626
2706	0.00335157
2718	0.00251368
2730	0.00213282
2742	0.00205664
2754	0.00281836
2766	0.00289454
2778	0.00396094
2790	0.00342774
2802	0.00411329
2814	0.00457032
2826	0.00441798
2838	0.00350391
2850	0.00449415
2862	0.00510352
2874	0.00525587
2886	0.00685548
2898	0.00853126
2910	0.0134063
2922	0.00982619
2934	0.00769337
2946	0.00914064
2958	0.0222422
2970	0.0684786
2982	0.0309258
2994	0.00883595
3006	0.007084
3018	0.00853126
3030	0.00632228
3042	0.00540821
3054	0.0062461
3066	0.00693165
3078	0.00731251
3090	0.00685548
3102	0.00693165
3114	0.00738868
3126	0.00594142
3138	0.00358008
3150	0.00342774
3162	0.00213282
3174	0.00213282
3186	0.00258985
3198	0.00396094
3210	0.00441798
3222	0.00388477
3234	0.00388477
3246	0.00251368
3258	0.00297071
3270	0.0024375
3282	0.00304688
3294	0.0038086
3306	0.0038086
3318	0.0043418
3330	0.00358008
3342	0.00266602
3354	0.00281836
3366	0.00144727
3378	0.00159961
3390	0.00228516
3402	0.00251368
3414	0.00289454
3426	0.00289454
3438	0.0038086
3450	0.00198047
3462	0.00175196
3474	0.00159961
3486	0.00236133
3498	0.00258985
3510	0.00335157
3522	0.00297071
3534	0.00304688
3546	0.00251368
3558	0.00236133
3570	0.000609376
3582	0
3594	0.00106641
3606	0.00167578
3618	0.00251368
3630	0.00213282
3642	0.0019043
3654	0.00274219
3666	0.00144727
3678	0.000990236
3690	0.0024375
3702	0.00297071
3714	0.0019043
3726	0.00228516
3738	0.00289454
3750	0.00373243
3762	0.00297071
3774	0.00182813
3786	0.00159961
3798	0.00175196
3810	0.00319922
3822	0.0032754
3834	0.0038086
3846	0.00388477
3858	0.00236133
3870	0.00274219
3882	0.00297071
3894	0.000685548
3906	0.000990236
3918	0.000837892
3930	0.00182813
3942	0.00175196
3954	0
3966	0.000152344
