Infrared Spectrum: Propanoic acid, methyl ester
Formula: C 4 H 8 O 2
CAS: 554-12-1
State: gas
Origin: Sadtler Research Labs Under US-EPA Contract
1/CM	ABSORBANCE
450	0.0115119
462	0.0119786
474	0.00785608
486	0.00598929
498	0.00178901
510	0.00256684
522	0.00474476
534	0.00326689
546	0.00451141
558	0.00451141
570	0.010034
582	0.0120564
594	0.0116674
606	0.0154788
618	0.0125231
630	0.0106563
642	0.011823
654	0.00738939
666	0.0105007
678	0.00917839
690	0.00700047
702	0.00552259
714	0.00863391
726	0.00645599
738	0.0105785
750	0.00964509
762	0.00762273
774	0.0119008
786	0.0153233
798	0.0207681
810	0.0322022
822	0.0440252
834	0.0689157
846	0.0653377
858	0.055926
870	0.0220904
882	0.0104229
894	0.00606707
906	0.00560038
918	0.00606707
930	0.00762273
942	0.0143899
954	0.0203014
966	0.0259795
978	0.0212348
990	0.0157899
1002	0.0259017
1014	0.0716381
1026	0.100029
1038	0.0935729
1050	0.0707047
1062	0.0988622
1074	0.147088
1086	0.175867
1098	0.163111
1110	0.120641
1122	0.0958287
1134	0.086028
1146	0.0939619
1158	0.175556
1170	0.389926
1182	0.593795
1194	0.752862
1206	0.694369
1218	0.509245
1230	0.339289
1242	0.242839
1254	0.186057
1266	0.160077
1278	0.16
1290	0.127953
1302	0.0826055
1314	0.0669712
1326	0.0973843
1338	0.142965
1350	0.207914
1362	0.181312
1374	0.0997178
1386	0.046592
1398	0.0409916
1410	0.0381915
1422	0.0618375
1434	0.12702
1446	0.161166
1458	0.13122
1470	0.105318
1482	0.0826833
1494	0.0397471
1506	0.0296353
1518	0.0234127
1530	0.018279
1542	0.0210014
1554	0.0156344
1566	0.0143899
1578	0.0145454
1590	0.0106563
1602	0.0107341
1614	0.0108896
1626	0.0121341
1638	0.0127564
1650	0.0126008
1662	0.0113563
1674	0.0134565
1686	0.0173456
1698	0.0221682
1710	0.0343023
1722	0.0738161
1734	0.198269
1746	0.487155
1758	0.734038
1770	0.77783
1782	0.434185
1794	0.140943
1806	0.0368691
1818	0.0150899
1830	0.00785608
1842	0.00832278
1854	0.00622264
1866	0.00785608
1878	0.00762273
1890	0.00661155
1902	0.00707825
1914	0.00661155
1926	0.0077783
1938	0.00700047
1950	0.00770052
1962	0.00544481
1974	0.00832278
1986	0.00847835
1998	0.00746717
2010	0.00894505
2022	0.0106563
2034	0.0142343
2046	0.0133009
2058	0.0127564
2070	0.008245
2082	0.00661155
2094	0.00583372
2106	0.00420028
2118	0.00513368
2130	0.00388915
2142	0.00443363
2154	0.00357802
2166	0.00373358
2178	0.00451141
2190	0.00388915
2202	0.00490033
2214	0.00264462
2226	0.0027224
2238	0.00186679
2250	0.00248906
2262	0.00194458
2274	0.00217792
2286	0.00287797
2298	0.00178901
2310	0.00373358
2322	0.00326689
2334	0.00567816
2346	0.00583372
2358	0.00598929
2370	0.00653377
2382	0.00482255
2394	0.00482255
2406	0.0027224
2418	0.00451141
2430	0.00140009
2442	0.00202236
2454	0.00163344
2466	0.00225571
2478	0.00233349
2490	0.00132231
2502	0.00171123
2514	0.000466698
2526	0.00186679
2538	0.00124453
2550	0.00163344
2562	0.00178901
2574	0.00171123
2586	0.00287797
2598	0.00264462
2610	0.00342245
2622	0.00233349
2634	0.00303354
2646	0.00295575
2658	0.00233349
2670	0.00264462
2682	0.00210014
2694	0.0031891
2706	0.00202236
2718	0.00248906
2730	0.00210014
2742	0.00311132
2754	0.00427807
2766	0.00482255
2778	0.00490033
2790	0.00536703
2802	0.0068449
2814	0.00715604
2826	0.0126008
2838	0.0226349
2850	0.0367136
2862	0.0389693
2874	0.0282352
2886	0.0491589
2898	0.0649488
2910	0.0791053
2922	0.0767718
2934	0.0939619
2946	0.167778
2958	0.239105
2970	0.235449
2982	0.189946
2994	0.188935
3006	0.158522
3018	0.111307
3030	0.074905
3042	0.0521146
3054	0.0293242
3066	0.0196791
3078	0.0165678
3090	0.0140009
3102	0.0143121
3114	0.00964509
3126	0.00964509
3138	0.00816722
3150	0.00637821
3162	0.00676712
3174	0.00544481
3186	0.00451141
3198	0.00466698
3210	0.00427807
3222	0.00280019
3234	0.00241127
3246	0.0027224
3258	0.00241127
3270	0.00342245
3282	0.00194458
3294	0.00256684
3306	0.00233349
3318	0.00248906
3330	0.00311132
3342	0.00326689
3354	0.00178901
3366	0.00264462
3378	0.0027224
3390	0.00225571
3402	0.00287797
3414	0.00241127
3426	0.00287797
3438	0.00194458
3450	0.00256684
3462	0.00287797
3474	0.00381137
3486	0.00598929
3498	0.008245
3510	0.0101896
3522	0.00902283
3534	0.00427807
3546	0.0036558
3558	0.00256684
3570	0.00264462
3582	0.00264462
3594	0.00287797
3606	0.00225571
3618	0.00256684
3630	0.00311132
3642	0.00194458
3654	0.00241127
3666	0.000855613
3678	0.0027224
3690	0.00202236
3702	7.7783e-05
3714	7.7783e-05
3726	7.7783e-05
3738	0.00163344
3750	0.000933396
3762	7.7783e-05
3774	7.7783e-05
3786	7.7783e-05
3798	7.7783e-05
3810	7.7783e-05
3822	7.7783e-05
3834	7.7783e-05
3846	7.7783e-05
3858	7.7783e-05
3870	7.7783e-05
3882	7.7783e-05
3894	7.7783e-05
3906	7.7783e-05
3918	7.7783e-05
3930	7.7783e-05
3942	7.7783e-05
3954	7.7783e-05
3966	7.7783e-05
