Infrared Spectrum: 2-Hexene
Formula: C 6 H 12
CAS: 592-43-8
State: gas
Origin: Sadtler Research Labs Under US-EPA Contract
1/CM	ABSORBANCE
450	0.00865907
462	0.0066911
474	0.00918386
486	0.00327995
498	0.000131198
510	0.0163998
522	0.013251
534	0.0178429
546	0.0169245
558	0.0129886
570	0.0253212
582	0.0282076
594	0.0181053
606	0.012595
618	0.00931506
630	0.00997105
642	0.0153502
654	0.0208605
666	0.0398842
678	0.0759636
690	0.0898706
702	0.0707157
714	0.0414586
726	0.0204669
738	0.0120702
750	0.0154814
762	0.0165309
774	0.0173181
786	0.0115454
798	0.00590391
810	0.00590391
822	0.00511672
834	0.0103646
846	0.0202045
858	0.0308315
870	0.0372602
882	0.0415898
894	0.0455257
906	0.0520856
918	0.0665174
930	0.0802932
942	0.114667
954	0.195354
966	0.249276
978	0.213328
990	0.134872
1002	0.0943314
1014	0.0798996
1026	0.0767508
1038	0.0851475
1050	0.0893458
1062	0.0876403
1074	0.0922322
1086	0.0884275
1098	0.0737333
1110	0.0606135
1122	0.0578583
1134	0.0557592
1146	0.052348
1158	0.0486745
1170	0.0535288
1182	0.0535288
1194	0.0401466
1206	0.0385722
1218	0.0425082
1230	0.0568087
1242	0.0718965
1254	0.0701909
1266	0.0646806
1278	0.0596951
1290	0.0520856
1302	0.0512984
1314	0.0524792
1326	0.0612695
1338	0.0746517
1350	0.0810804
1362	0.0926258
1374	0.127262
1386	0.147204
1398	0.125688
1410	0.0938066
1422	0.090133
1434	0.119259
1446	0.174756
1458	0.21792
1470	0.190499
1482	0.119653
1494	0.0632374
1506	0.0393594
1518	0.0254524
1530	0.0196797
1542	0.0190237
1554	0.0136446
1566	0.0116766
1578	0.0108894
1590	0.00983985
1602	0.0108894
1614	0.0161374
1626	0.026502
1638	0.0439513
1650	0.0426394
1662	0.0366042
1674	0.0338491
1686	0.0442137
1698	0.066255
1710	0.0843603
1722	0.0839667
1734	0.0640246
1746	0.0572023
1758	0.0541848
1770	0.039753
1782	0.0276828
1794	0.0234844
1806	0.0177117
1818	0.0104958
1830	0.00564151
1842	0.00301755
1854	0.00196797
1866	0.00104958
1878	0.000262396
1890	0.000524792
1902	0
1914	0
1926	0.000918386
1938	0.000524792
1950	0.000393594
1962	0.00065599
1974	0.000918386
1986	0.00288636
1998	0.00446073
2010	0.00432953
2022	0.00275516
2034	0.00144318
2046	0.00157438
2058	0.00157438
2070	0.00118078
2082	0.000918386
2094	0.00157438
2106	0.00144318
2118	0.00104958
2130	0.00065599
2142	0.000918386
2154	0.00104958
2166	0.00065599
2178	0.00157438
2190	0.00183677
2202	0.00196797
2214	0.00196797
2226	0.00131198
2238	0.00170557
2250	0.00131198
2262	0.00118078
2274	0.00157438
2286	0.00144318
2298	0.000524792
2310	0.000524792
2322	0.00196797
2334	0.00288636
2346	0.00301755
2358	0.00341115
2370	0.00485433
2382	0.00459193
2394	0.00446073
2406	0.00419834
2418	0.00367354
2430	0.00367354
2442	0.00301755
2454	0.00327995
2466	0.00341115
2478	0.00341115
2490	0.00327995
2502	0.00393594
2514	0.00406714
2526	0.00459193
2538	0.00472313
2550	0.00472313
2562	0.00551032
2574	0.00485433
2586	0.00551032
2598	0.0064287
2610	0.0066911
2622	0.00695349
2634	0.00721589
2646	0.00931506
2658	0.0118078
2670	0.014563
2682	0.0171869
2694	0.0182365
2706	0.0209917
2718	0.0240092
2730	0.0310939
2742	0.0398842
2754	0.0380474
2766	0.0305691
2778	0.0343739
2790	0.041721
2802	0.0505112
2814	0.064943
2826	0.0931506
2838	0.155601
2850	0.262396
2862	0.440432
2874	0.62647
2886	0.69758
2898	0.651267
2910	0.696793
2922	0.948693
2934	1.19639
2946	1.20807
2958	1.14064
2970	1.31198
2982	1.07648
2994	0.562577
3006	0.398842
3018	0.394119
3030	0.368798
3042	0.259903
3054	0.151534
3066	0.0952497
3078	0.0713717
3090	0.0548408
3102	0.0425082
3114	0.0355547
3126	0.0317499
3138	0.0266332
3150	0.0216477
3162	0.0188925
3174	0.0170557
3186	0.0157438
3198	0.013907
3210	0.0120702
3222	0.00944626
3234	0.00760948
3246	0.0068223
3258	0.00590391
3270	0.00537912
3282	0.00603511
3294	0.0065599
3306	0.00537912
3318	0.00577271
3330	0.00459193
3342	0.00485433
3354	0.00511672
3366	0.00459193
3378	0.00537912
3390	0.00367354
3402	0.00511672
3414	0.00590391
3426	0.00406714
3438	0.00472313
3450	0.00472313
3462	0.00249276
3474	0.00406714
3486	0.00354235
3498	0.00327995
3510	0.00380474
3522	0.00262396
3534	0.00314875
3546	0.00301755
3558	0.00459193
3570	0.00892146
3582	0.00879027
3594	0.00944626
3606	0.00774068
3618	0.00760948
3630	0.0122014
3642	0.0136446
3654	0.0154814
3666	0.0107582
3678	0.00865907
3690	0.00104958
3702	0.00301755
3714	0.000262396
3726	0.00223037
3738	0.00341115
3750	0.00236156
3762	0.00249276
3774	0.00209917
3786	0.00170557
3798	0.00524792
3810	0.00288636
3822	0.00367354
3834	0.00236156
3846	0.00367354
3858	0.00419834
3870	0.00341115
3882	0.000787188
3894	0.00393594
3906	0.00301755
3918	0.00131198
3930	0.00708469
3942	0.000262396
3954	0.00118078
3966	0.00485433
