Infrared Spectrum: EPIFLUOROHYDRIN
Formula: C3 H5 F O
CAS: 503-09-3
State: SOLUTION (10% CCl4 FOR 3800-1330, 10% CS2 FOR 1330-440 CM^-^1)
Class: COBLENTZ
Instrument: DOW KBr FOREPRISM-GRATING
Instrument parameters: BLAZED AT 3.5, 12.0, 20.0 MICRON AND CHANGED AT 5.0, 7.5, 14.9 MICRON
Sampling: TRANSMISSION
Path length: 0.011 CM, 0.011 CM
Resolution: 2
Origin: DOW CHEMICAL COMPANY
1/CM	TRANSMITTANCE
442	0.8132
451	0.8134
460	0.8125
469	0.7982
478	0.7578
487	0.538
496	0.4539
505	0.7765
514	0.8817
523	0.923
532	0.9456
541	0.9612
550	0.9685
559	0.9687
568	0.9637
577	0.9549
586	0.9421
595	0.9021
604	0.7118
613	0.9036
622	0.9546
631	0.9424
640	0.9245
649	0.9075
658	0.9383
667	0.9718
676	0.9785
685	0.9744
694	0.9654
703	0.9747
712	0.9671
721	0.9355
730	0.8581
739	0.7706
748	0.703
757	0.7265
766	0.3592
775	0.7311
784	0.8239
793	0.7611
802	0.6706
811	0.7928
820	0.788
829	0.5851
838	0.2649
847	0.2127
856	0.1126
865	0.5742
874	0.703
883	0.7268
892	0.6921
901	0.3558
910	0.0448
919	0.4184
928	0.61
937	0.7136
946	0.521
955	0.5934
964	0.6975
973	0.6784
982	0.6821
991	0.6234
1000	0.4041
1009	0.0968
1018	0.0104
1027	0.0274
1036	0.2956
1045	0.4937
1054	0.494
1063	0.6328
1072	0.5957
1081	0.4227
1090	0.4241
1099	0.7022
1108	0.8106
1117	0.8478
1126	0.8042
1135	0.7364
1144	0.8333
1153	0.8051
1162	0.7962
1171	0.8938
1180	0.8952
1189	0.9298
1198	0.935
1207	0.9148
1216	0.8575
1225	0.7678
1234	0.7504
1243	0.6796
1252	0.5167
1261	0.5872
1270	0.7157
1279	0.8545
1288	0.9282
1297	0.946
1306	0.9477
1315	0.9418
1324	0.9298
1333	0.904
1342	0.7865
1351	0.7237
1360	0.6587
1369	0.8199
1378	0.8537
1387	0.8321
1396	0.8398
1405	0.8068
1414	0.7954
1423	0.7297
1432	0.5272
1441	0.8008
1450	0.7201
1459	0.6632
1468	0.785
1477	0.7781
1486	0.7004
1495	0.8025
1504	0.7785
1513	0.7501
1522	0.7161
1531	0.651
1540	0.5422
1549	0.5047
1558	0.5283
1567	0.5895
1576	0.6507
1585	0.6838
1594	0.7181
1603	0.8053
1612	0.8744
1621	0.9184
1630	0.9242
1639	0.9351
1648	0.9366
1657	0.9562
1666	0.9486
1675	0.9356
1684	0.9283
1693	0.9357
1702	0.9077
1711	0.8383
1720	0.7405
1729	0.6465
1738	0.5889
1747	0.6542
1756	0.7031
1765	0.9339
1774	0.9627
1783	0.9734
1792	0.9821
1801	0.9848
1810	0.9838
1819	0.9825
1828	0.9842
1837	0.9849
1846	0.9835
1855	0.9849
1864	0.9874
1873	0.9904
1882	0.9908
1891	0.9907
1900	0.991
1909	0.9945
1918	0.992
1927	0.9851
1936	0.986
1945	0.9971
1954	0.9988
1963	0.9968
1972	0.9907
1981	0.9841
1990	0.9723
1999	0.9741
2008	0.966
2017	0.9638
2026	0.9658
2035	0.9693
2044	0.9737
2053	0.9794
2062	0.9863
2071	0.9924
2080	0.993
2089	0.9904
2098	0.9871
2107	0.9853
2116	0.9865
2125	0.9899
2134	0.9906
2143	0.9902
2152	0.989
2161	0.9894
2170	0.9927
2179	0.9945
2188	0.9928
2197	0.9894
2206	0.9868
2215	0.9841
2224	0.9809
2233	0.9774
2242	0.9732
2251	0.9685
2260	0.9621
2269	0.9564
2278	0.9537
2287	0.9527
2296	0.9552
2305	0.9608
2314	0.9695
2323	0.9793
2332	0.989
2341	0.993
2350	0.9942
2359	0.9943
2368	0.9936
2377	0.9925
2386	0.9915
2395	0.9908
2404	0.9906
2413	0.9915
2422	0.9934
2431	0.9954
2440	0.9982
2449	0.9977
2458	0.9971
2467	0.9959
2476	0.9944
2485	0.9944
2494	0.9944
2503	0.9954
2512	0.9966
2521	0.9963
2530	0.9959
2539	0.995
2548	0.9935
2557	0.9918
2566	0.9903
2575	0.9885
2584	0.9865
2593	0.9845
2602	0.9825
2611	0.9848
2620	0.9944
2629	0.9973
2638	0.9987
2647	0.9985
2656	0.9977
2665	0.9968
2674	0.9959
2683	0.9948
2692	0.9934
2701	0.992
2710	0.9901
2719	0.9877
2728	0.9848
2737	0.9807
2746	0.9732
2755	0.9643
2764	0.971
2773	0.9789
2782	0.9798
2791	0.9786
2800	0.9775
2809	0.9754
2818	0.9721
2827	0.9633
2836	0.9485
2845	0.9313
2854	0.924
2863	0.9167
2872	0.8675
2881	0.7758
2890	0.7455
2899	0.7558
2908	0.725
2917	0.7436
2926	0.6453
2935	0.5014
2944	0.5121
2953	0.4296
2962	0.4724
2971	0.4519
2980	0.4755
2989	0.4806
2998	0.427
3007	0.3872
3016	0.3996
3025	0.6195
3034	0.7862
3043	0.7847
3052	0.7151
3061	0.6428
3070	0.7158
3079	0.8716
3088	0.9366
3097	0.9566
3106	0.9667
3115	0.9749
3124	0.9797
3133	0.983
3142	0.9857
3151	0.987
3160	0.9886
3169	0.991
3178	0.9917
3187	0.9916
3196	0.9913
3205	0.9905
3214	0.9897
3223	0.9891
3232	0.9886
3241	0.9875
3250	0.9867
3259	0.9859
3268	0.9853
3277	0.9847
3286	0.9841
3295	0.9836
3304	0.9833
3313	0.9825
3322	0.9807
3331	0.98
3340	0.9797
3349	0.9788
3358	0.9775
3367	0.9755
3376	0.9732
3385	0.9712
3394	0.9692
3403	0.9678
3412	0.9673
3421	0.9673
3430	0.9675
3439	0.9677
3448	0.9681
3457	0.9686
3466	0.9692
3475	0.9696
3484	0.9699
3493	0.9702
3502	0.9708
3511	0.9715
3520	0.9721
3529	0.973
3538	0.9739
3547	0.9748
3556	0.9771
3565	0.9793
3574	0.9802
3583	0.9623
3592	0.9857
3601	0.9848
3610	0.9821
3619	0.9809
3628	0.9874
3637	0.9955
3646	1.001
3655	1.0017
3664	0.9999
3673	0.997
3682	0.9927
3691	0.9884
3700	0.9984
3709	1.0041
3718	1.0025
3727	1.0002
3736	0.998
3745	0.9954
3754	0.9923
3763	0.9904
3772	0.9907
3781	0.9935
3790	0.9978
3799	1.0015
