Infrared Spectrum: 4-Penten-1-ol
Formula: C 5 H 10 O
CAS: 821-09-0
State: gas
Origin: Sadtler Research Labs Under US-EPA Contract
1/CM	ABSORBANCE
450	0
462	0.0226419
474	0.0228631
486	0.0372448
498	0.0266245
510	0.0232319
522	0.0221256
534	0.0217568
546	0.0258132
558	0.0266245
570	0.0204293
582	0.0185855
594	0.0342947
606	0.0290583
618	0.0517002
630	0.0747845
642	0.0604029
654	0.0406374
666	0.0304596
678	0.0185118
690	0.0210193
702	0.0202818
714	0.0145291
726	0.0162254
738	0.00700644
750	0.0146766
762	0.0205031
774	0.0207243
786	0.018143
798	0.019913
810	0.0182905
822	0.0255182
834	0.0363597
846	0.0443987
858	0.0520689
870	0.0609929
882	0.0875436
894	0.161738
906	0.302088
918	0.380487
930	0.29309
942	0.181946
954	0.127665
966	0.117118
978	0.151265
990	0.219117
1002	0.277381
1014	0.334392
1026	0.394573
1038	0.436243
1050	0.517297
1062	0.542077
1074	0.400252
1086	0.235859
1098	0.142784
1110	0.106572
1122	0.092485
1134	0.081201
1146	0.074047
1158	0.0723507
1170	0.0753008
1182	0.0786196
1194	0.0801684
1206	0.0820122
1218	0.0817172
1230	0.0828235
1242	0.0878386
1254	0.09219
1266	0.09337
1278	0.0910837
1290	0.0877649
1302	0.0825285
1314	0.0756696
1326	0.072867
1338	0.0807584
1350	0.0898299
1362	0.0949188
1374	0.110776
1386	0.135114
1398	0.127665
1410	0.101925
1422	0.0912312
1434	0.104212
1446	0.119626
1458	0.101999
1470	0.0750058
1482	0.0570103
1494	0.0341472
1506	0.019618
1518	0.0154142
1530	0.0143816
1542	0.0151192
1554	0.0146029
1566	0.0123166
1578	0.0126116
1590	0.0132754
1602	0.0165942
1614	0.0266245
1626	0.0545027
1638	0.121838
1650	0.124936
1662	0.0428499
1674	0.016668
1686	0.0108415
1698	0.00966151
1710	0.00914525
1722	0.00929275
1734	0.00781771
1746	0.0073752
1758	0.00767021
1770	0.00811272
1782	0.00826022
1794	0.0093665
1806	0.0122428
1818	0.0217568
1830	0.035401
1842	0.0330409
1854	0.017848
1866	0.0116528
1878	0.00914525
1890	0.00892399
1902	0.00929275
1914	0.00944026
1926	0.00929275
1938	0.00929275
1950	0.00966151
1962	0.0116528
1974	0.0128328
1986	0.0115053
1998	0.00944026
2010	0.00840773
2022	0.00818647
2034	0.00929275
2046	0.0100303
2058	0.010694
2070	0.0110628
2082	0.00973526
2094	0.0090715
2106	0.00885024
2118	0.00781771
2130	0.00774396
2142	0.00789146
2154	0.00715394
2166	0.0072277
2178	0.0072277
2190	0.00678518
2202	0.0073752
2214	0.00693269
2226	0.00671143
2238	0.00715394
2250	0.00767021
2262	0.0075227
2274	0.00833398
2286	0.00899774
2298	0.0093665
2310	0.010104
2322	0.00958776
2334	0.00826022
2346	0.00995652
2358	0.00811272
2370	0.010104
2382	0.00980902
2394	0.00877649
2406	0.00885024
2418	0.009219
2430	0.009219
2442	0.00966151
2454	0.00973526
2466	0.00944026
2478	0.00958776
2490	0.00914525
2502	0.00958776
2514	0.00958776
2526	0.00840773
2538	0.00848148
2550	0.00958776
2562	0.00929275
2574	0.0093665
2586	0.009219
2598	0.00929275
2610	0.00980902
2622	0.0118003
2634	0.0118003
2646	0.0139391
2658	0.0162254
2670	0.016668
2682	0.0199868
2694	0.0239694
2706	0.0261082
2718	0.0266245
2730	0.0283208
2742	0.0308283
2754	0.0339259
2766	0.0368022
2778	0.0410061
2790	0.0438087
2802	0.0480126
2814	0.0553878
2826	0.0736782
2838	0.120658
2850	0.198614
2862	0.287043
2874	0.372226
2886	0.413232
2898	0.414707
2910	0.469874
2922	0.597981
2934	0.721958
2946	0.70942
2958	0.540971
2970	0.361459
2982	0.258943
2994	0.204146
3006	0.168671
3018	0.120658
3030	0.0716132
3042	0.0533964
3054	0.0606241
3066	0.0900512
3078	0.156428
3090	0.185781
3102	0.122502
3114	0.0405636
3126	0.0217568
3138	0.017258
3150	0.0152667
3162	0.0131279
3174	0.0125378
3186	0.010399
3198	0.0108415
3210	0.010694
3222	0.00995652
3234	0.010104
3246	0.0100303
3258	0.010989
3270	0.0106203
3282	0.00951401
3294	0.00870274
3306	0.0090715
3318	0.00803897
3330	0.00848148
3342	0.00870274
3354	0.00826022
3366	0.00803897
3378	0.00693269
3390	0.00767021
3402	0.00944026
3414	0.0123903
3426	0.0116528
3438	0.00958776
3450	0.0103253
3462	0.00892399
3474	0.0115791
3486	0.00899774
3498	0.0103253
3510	0.00966151
3522	0.00855523
3534	0.00840773
3546	0.00958776
3558	0.0120216
3570	0.0112841
3582	0.0105465
3594	0.0124641
3606	0.0142341
3618	0.0252969
3630	0.0389411
3642	0.0588541
3654	0.0937388
3666	0.135999
3678	0.124198
3690	0.0708757
3702	0.027952
3714	0.0154879
3726	0.0126853
3738	0.0100303
3750	0.0129066
3762	0.0102515
3774	0.009219
3786	0.0117266
3798	0.0133491
3810	0.0112841
3822	0.0112841
3834	0.00767021
3846	0.0134229
3858	0.0132754
3870	0.00980902
3882	0.00663768
3894	0.0115053
3906	0.0118741
3918	0.0115053
3930	0.0072277
3942	0.009219
3954	0.010104
3966	0.00892399
