Infrared Spectrum: Ethylcyclobutane
Formula: C 6 H 12
CAS: 4806-61-5
State: gas
Instrument: HP-GC/MS/IRD
Origin: NIST Mass Spectrometry Data Center
1/CM	ABSORBANCE
550	0.000246
562	5.4e-05
574	0
586	0.000132
598	0.0003
610	0.00027
622	0.000216
634	0.000126
646	0.000294
658	0.000156
670	0.00027
682	0.000222
694	0.000192
706	0.000192
718	0.000192
730	0.00027
742	0.000258
754	0.000318
766	0.000378
778	0.00045
790	0.000474
802	0.00036
814	0.00024
826	0.000132
838	0.000144
850	0.000198
862	0.000204
874	0.000366
886	0.000414
898	0.000648
910	0.000906
922	0.00099
934	0.000684
946	0.000438
958	0.000426
970	0.000732
982	0.000852
994	0.000642
1006	0.000318
1018	0.00018
1030	0.000132
1042	8.4e-05
1054	8.4e-05
1066	0.000114
1078	0.000204
1090	0.000216
1102	0.000234
1114	0.000258
1126	0.000318
1138	0.000246
1150	0.00027
1162	0.000258
1174	0.00027
1186	0.00033
1198	0.000342
1210	0.000366
1222	0.000552
1234	0.000858
1246	0.000972
1258	0.00093
1270	0.000894
1282	0.000816
1294	0.001218
1306	0.001638
1318	0.001554
1330	0.000876
1342	0.000672
1354	0.00093
1366	0.001314
1378	0.001668
1390	0.00177
1402	0.0012
1414	0.000966
1426	0.001482
1438	0.002418
1450	0.003588
1462	0.003894
1474	0.003156
1486	0.001932
1498	0.00102
1510	0.00057
1522	0.000414
1534	0.000294
1546	0.000258
1558	0.000246
1570	0.000204
1582	0.000198
1594	0.000138
1606	0.00015
1618	0.000168
1630	0.00015
1642	0.000156
1654	0.000216
1666	0.000192
1678	0.000156
1690	0.000114
1702	0.000126
1714	0.00012
1726	4.2e-05
1738	6e-05
1750	3.6e-05
1762	6.6e-05
1774	7.8e-05
1786	8.4e-05
1798	9.6e-05
1810	0.000102
1822	7.2e-05
1834	8.4e-05
1846	0.000114
1858	0.000108
1870	9.6e-05
1882	7.2e-05
1894	4.2e-05
1906	6e-05
1918	3.6e-05
1930	3e-05
1942	5.4e-05
1954	3.6e-05
1966	4.2e-05
1978	1.8e-05
1990	6e-05
2002	3.6e-05
2014	7.2e-05
2026	5.4e-05
2038	7.8e-05
2050	0.000108
2062	0.00012
2074	0.000132
2086	0.000108
2098	0.000114
2110	0.000156
2122	0.000186
2134	0.00027
2146	0.000336
2158	0.000288
2170	0.000234
2182	0.000192
2194	0.00018
2206	0.00015
2218	0.000156
2230	0.000144
2242	0.000108
2254	8.4e-05
2266	5.4e-05
2278	5.4e-05
2290	3e-05
2302	6.6e-05
2314	6.6e-05
2326	0.000108
2338	0.000108
2350	0.000114
2362	0.000156
2374	0.000132
2386	0.000114
2398	6.6e-05
2410	7.8e-05
2422	7.2e-05
2434	9.6e-05
2446	0.00012
2458	0.000102
2470	8.4e-05
2482	9.6e-05
2494	6.6e-05
2506	6e-05
2518	9e-05
2530	0.000102
2542	0.000132
2554	0.000138
2566	0.00018
2578	0.000138
2590	0.000222
2602	0.00027
2614	0.000342
2626	0.000348
2638	0.00033
2650	0.000402
2662	0.000414
2674	0.00045
2686	0.000408
2698	0.000408
2710	0.000486
2722	0.000546
2734	0.000648
2746	0.000774
2758	0.000786
2770	0.000852
2782	0.00099
2794	0.001158
2806	0.00156
2818	0.002202
2830	0.003702
2842	0.006792
2854	0.012078
2866	0.017856
2878	0.021984
2890	0.023346
2902	0.025788
2914	0.032202
2926	0.038682
2938	0.043392
2950	0.052758
2962	0.059844
2974	0.058626
2986	0.036912
2998	0.019164
3010	0.00819
3022	0.003918
3034	0.002718
3046	0.002382
3058	0.002112
3070	0.00189
3082	0.001626
3094	0.001326
3106	0.001038
3118	0.000798
3130	0.000774
3142	0.000708
3154	0.000618
3166	0.000612
3178	0.000474
3190	0.000402
3202	0.000348
3214	0.000258
3226	0.000198
3238	0.000174
3250	0.000186
3262	0.000174
3274	0.00015
3286	0.00024
3298	0.000192
3310	0.000168
3322	0.000234
3334	0.000228
3346	0.000246
3358	0.000204
3370	0.000204
3382	0.000168
3394	0.000108
3406	0.000102
3418	9e-05
3430	3e-05
3442	8.4e-05
3454	9e-05
3466	0.000108
3478	0.000108
3490	9.6e-05
3502	0.000156
3514	7.8e-05
3526	0.000114
3538	0.000114
3550	0.000144
3562	0.000174
3574	0.000102
3586	0.000168
3598	0.000192
3610	0.000162
3622	0.00018
3634	0.000222
3646	0.000234
3658	0.000198
3670	0.00024
3682	0.000228
3694	0.000246
3706	0.0003
3718	0.0003
3730	0.00027
3742	0.00024
3754	0.00021
3766	0.000252
3778	0.000246
3790	0.0003
3802	0.000312
3814	0.000318
3826	0.000378
3838	0.000264
