Infrared Spectrum: UREA, METHOXY-
Formula: C2 H6 N2 O2
CAS: 3272-27-3
State: SOLID (0.7 mg / 500 mg KBr DISC)
Melting point: 84 C
Class: COBLENTZ III
Instrument: PERKIN-ELMER 221 (GRATING)
Instrument parameters: FILTERS AT 980, 2490 CM ^-^1, GRATING FOR 4000-1428 CM^-^1
Sampling: TRANSMISSION
Resolution: 4
Origin: SOUTHERN RES. INSTITUTE
1/CM	TRANSMITTANCE
599.675	0.469
608.781	0.465
617.886	0.454
626.992	0.44
636.098	0.425
645.203	0.422
654.309	0.435
663.415	0.452
672.521	0.461
681.626	0.452
690.732	0.406
699.838	0.332
708.943	0.321
718.049	0.387
727.155	0.496
736.26	0.55
745.366	0.602
754.472	0.601
763.577	0.588
772.683	0.551
781.789	0.521
790.894	0.447
800	0.406
809.106	0.375
818.212	0.399
827.317	0.478
836.423	0.551
845.529	0.615
854.634	0.675
863.74	0.715
872.846	0.752
881.951	0.774
891.057	0.79
900.163	0.8
909.268	0.803
918.374	0.8
927.48	0.784
936.586	0.732
945.691	0.661
954.797	0.551
963.903	0.366
973.008	0.405
982.114	0.568
991.22	0.603
1000.33	0.59
1009.43	0.625
1018.54	0.696
1027.64	0.725
1036.75	0.728
1045.85	0.725
1054.96	0.722
1064.07	0.709
1073.17	0.662
1082.28	0.539
1091.38	0.4
1100.49	0.536
1109.59	0.558
1118.7	0.409
1127.8	0.4
1136.91	0.515
1146.02	0.612
1155.12	0.596
1164.23	0.691
1173.33	0.725
1182.44	0.706
1191.54	0.534
1200.65	0.643
1209.76	0.717
1218.86	0.715
1227.97	0.703
1237.07	0.692
1246.18	0.682
1255.28	0.675
1264.39	0.669
1273.5	0.668
1282.6	0.662
1291.71	0.657
1300.81	0.653
1309.92	0.646
1319.02	0.643
1328.13	0.624
1337.24	0.611
1346.34	0.6
1355.45	0.586
1364.55	0.563
1373.66	0.55
1382.76	0.518
1391.87	0.489
1400.98	0.403
1410.08	0.366
1419.19	0.449
1428.29	0.377
1437.4	0.334
1446.5	0.461
1455.61	0.421
1464.72	0.367
1473.82	0.38
1482.93	0.404
1492.03	0.45
1501.14	0.494
1510.24	0.531
1519.35	0.552
1528.46	0.561
1537.56	0.557
1546.67	0.549
1555.77	0.522
1564.88	0.473
1573.98	0.402
1583.09	0.3
1592.2	0.236
1601.3	0.252
1610.41	0.281
1619.51	0.281
1628.62	0.26
1637.72	0.199
1646.83	0.146
1655.93	0.125
1665.04	0.132
1674.15	0.152
1683.25	0.183
1692.36	0.231
1701.46	0.304
1710.57	0.354
1719.67	0.387
1728.78	0.418
1737.89	0.446
1746.99	0.479
1756.1	0.499
1765.2	0.515
1774.31	0.532
1783.41	0.546
1792.52	0.553
1801.63	0.572
1810.73	0.589
1819.84	0.598
1828.94	0.617
1838.05	0.624
1847.15	0.637
1856.26	0.65
1865.37	0.656
1874.47	0.662
1883.58	0.668
1892.68	0.677
1901.79	0.681
1910.89	0.689
1920	0.695
1929.11	0.702
1938.21	0.706
1947.32	0.71
1956.42	0.713
1965.53	0.715
1974.63	0.718
1983.74	0.721
1992.85	0.725
2001.95	0.726
2011.06	0.734
2020.16	0.737
2029.27	0.739
2038.37	0.74
2047.48	0.741
2056.59	0.742
2065.69	0.744
2074.8	0.745
2083.9	0.746
2093.01	0.748
2102.11	0.75
2111.22	0.752
2120.33	0.753
2129.43	0.753
2138.54	0.754
2147.64	0.755
2156.75	0.756
2165.85	0.756
2174.96	0.756
2184.06	0.756
2193.17	0.756
2202.28	0.756
2211.38	0.756
2220.49	0.756
2229.59	0.756
2238.7	0.755
2247.8	0.748
2256.91	0.75
2266.02	0.752
2275.12	0.755
2284.23	0.757
2293.33	0.761
2302.44	0.762
2311.54	0.761
2320.65	0.761
2329.76	0.761
2338.86	0.762
2347.97	0.762
2357.07	0.763
2366.18	0.764
2375.28	0.765
2384.39	0.768
2393.5	0.769
2402.6	0.768
2411.71	0.767
2420.81	0.765
2429.92	0.766
2439.02	0.767
2448.13	0.766
2457.24	0.764
2466.34	0.759
2475.45	0.76
2484.55	0.766
2493.66	0.768
2502.76	0.768
2511.87	0.766
2520.98	0.765
2530.08	0.762
2539.19	0.759
2548.29	0.756
2557.4	0.754
2566.5	0.753
2575.61	0.751
2584.72	0.75
2593.82	0.748
2602.93	0.748
2612.03	0.75
2621.14	0.75
2630.24	0.748
2639.35	0.749
2648.46	0.743
2657.56	0.73
2666.67	0.727
2675.77	0.724
2684.88	0.719
2693.98	0.716
2703.09	0.713
2712.19	0.711
2721.3	0.709
2730.41	0.705
2739.51	0.701
2748.62	0.696
2757.72	0.685
2766.83	0.671
2775.93	0.648
2785.04	0.641
2794.15	0.637
2803.25	0.625
2812.36	0.576
2821.46	0.534
2830.57	0.579
2839.67	0.539
2848.78	0.522
2857.89	0.521
2866.99	0.522
2876.1	0.521
2885.2	0.519
2894.31	0.515
2903.41	0.511
2912.52	0.506
2921.63	0.501
2930.73	0.49
2939.84	0.481
2948.94	0.469
2958.05	0.462
2967.15	0.459
2976.26	0.46
2985.37	0.463
2994.47	0.468
3003.58	0.476
3012.68	0.478
3021.79	0.474
3030.89	0.468
3040	0.453
3049.11	0.442
3058.21	0.431
3067.32	0.422
3076.42	0.413
3085.53	0.4
3094.63	0.39
3103.74	0.381
3112.85	0.369
3121.95	0.359
3131.06	0.338
3140.16	0.328
3149.27	0.29
3158.37	0.276
3167.48	0.241
3176.59	0.232
3185.69	0.228
3194.8	0.226
3203.9	0.225
3213.01	0.227
3222.11	0.228
3231.22	0.237
3240.32	0.254
3249.43	0.268
3258.54	0.27
3267.64	0.271
3276.75	0.273
3285.85	0.277
3294.96	0.281
3304.06	0.285
3313.17	0.288
3322.28	0.289
3331.38	0.287
3340.49	0.281
3349.59	0.272
3358.7	0.268
3367.8	0.262
3376.91	0.254
3386.02	0.216
3395.12	0.198
3404.23	0.177
3413.33	0.181
3422.44	0.215
3431.54	0.24
3440.65	0.267
3449.76	0.28
3458.86	0.308
3467.97	0.32
3477.07	0.346
3486.18	0.361
3495.28	0.381
3504.39	0.392
3513.5	0.419
3522.6	0.434
3531.71	0.443
3540.81	0.457
3549.92	0.468
3559.02	0.475
3568.13	0.482
3577.24	0.487
3586.34	0.502
3595.45	0.509
3604.55	0.518
3613.66	0.528
3622.76	0.534
3631.87	0.539
3640.98	0.544
3650.08	0.549
3659.19	0.553
3668.29	0.555
3677.4	0.556
3686.5	0.559
3695.61	0.561
3704.72	0.563
3713.82	0.565
3722.93	0.567
3732.03	0.568
3741.14	0.57
3750.24	0.571
3759.35	0.572
3768.45	0.573
3777.56	0.573
3786.67	0.573
3795.77	0.572
3804.88	0.571
3813.98	0.57
3823.09	0.57
3832.19	0.57
3841.3	0.571
3850.41	0.571
3859.51	0.571
3868.62	0.572
3877.72	0.573
3886.83	0.573
3895.93	0.574
3905.04	0.574
3914.15	0.574
3923.25	0.574
3932.36	0.574
3941.46	0.574
3950.57	0.574
3959.67	0.574
3968.78	0.574
3977.89	0.575
3986.99	0.575
3996.1	0.575
