Infrared Spectrum: Propylene oxide
Formula: C 3 H 6 O
CAS: 75-56-9
State: gas
Origin: Sadtler Research Labs Under US-EPA Contract
1/CM	ABSORBANCE
450	0.00321528
462	0.00702876
474	0.00867378
486	0.00471076
498	0.000972062
510	0.00411257
522	0.00792604
534	0.00486031
546	0.0037387
558	0.00074774
570	0.00889811
582	0.00538373
594	0.0071783
606	0.00456121
618	0.00515941
630	0.00822514
642	0.00381347
654	0.00418734
666	0.00433689
678	0.00590715
690	0.00628102
702	0.0100945
714	0.0144314
726	0.0288628
738	0.058548
750	0.0822514
762	0.0852424
774	0.120984
786	0.0868874
798	0.139154
810	0.276888
822	0.406696
834	0.415519
846	0.400564
858	0.252661
870	0.106702
882	0.0652777
894	0.0533886
906	0.0580994
918	0.0713344
930	0.100421
942	0.129882
954	0.118741
966	0.140351
978	0.102515
990	0.0826253
1002	0.0906261
1014	0.0992251
1026	0.091972
1038	0.081728
1050	0.0527904
1062	0.0349942
1074	0.034396
1086	0.048304
1098	0.0704371
1110	0.098926
1122	0.106254
1134	0.0985521
1146	0.0723065
1158	0.0539868
1170	0.0370131
1182	0.0212358
1194	0.0150296
1206	0.0150296
1218	0.0180953
1230	0.0275916
1242	0.0465094
1254	0.0640065
1266	0.070138
1278	0.0639318
1290	0.0435932
1302	0.02647
1314	0.0174223
1326	0.015553
1338	0.021834
1350	0.0314051
1362	0.0432941
1374	0.0859153
1386	0.157624
1398	0.227089
1410	0.321154
1422	0.248773
1434	0.174523
1446	0.102366
1458	0.0945891
1470	0.103786
1482	0.0895793
1494	0.0773911
1506	0.0738767
1518	0.0470328
1530	0.0450139
1542	0.019516
1554	0.0149548
1566	0.0124125
1578	0.0131602
1590	0.015553
1602	0.0157773
1614	0.0129359
1626	0.00979539
1638	0.0104684
1650	0.0115152
1662	0.0124125
1674	0.0114404
1686	0.00912243
1698	0.00867378
1710	0.0104684
1722	0.0148053
1734	0.0174223
1746	0.017871
1758	0.0171232
1770	0.0143566
1782	0.00762695
1794	0.00523418
1806	0.00530895
1818	0.00456121
1830	0.00276664
1842	0.00291619
1854	0.00418734
1866	0.00448644
1878	0.00426212
1890	0.00471076
1902	0.00523418
1914	0.00500986
1926	0.00478554
1938	0.00493508
1950	0.00583237
1962	0.00672966
1974	0.00680443
1986	0.00665489
1998	0.00553328
2010	0.00515941
2022	0.00471076
2034	0.00471076
2046	0.00366393
2058	0.00314051
2070	0.00314051
2082	0.00299096
2094	0.00261709
2106	0.00239277
2118	0.00276664
2130	0.00441167
2142	0.00643056
2154	0.00740263
2166	0.00912243
2178	0.00874856
2190	0.00665489
2202	0.00568282
2214	0.00605669
2226	0.00792604
2238	0.0094963
2250	0.0119638
2262	0.0116647
2274	0.0122629
2286	0.0103188
2298	0.00725308
2310	0.0071783
2322	0.00553328
2334	0.00261709
2346	0.00321528
2358	0.00448644
2370	0.00358915
2382	0.00157025
2394	0.00157025
2406	0.00112161
2418	0.00231799
2430	0.0017198
2442	0.00127116
2454	0.000523418
2466	0.000822514
2478	0.00112161
2490	0.00104684
2502	0.00186935
2514	0.0020189
2526	0.00246754
2538	0.00261709
2550	0.0020189
2562	0.00216845
2574	0.00276664
2586	0.0034396
2598	0.00456121
2610	0.00486031
2622	0.00426212
2634	0.00426212
2646	0.00336483
2658	0.00239277
2670	0.00246754
2682	0.00261709
2694	0.00471076
2706	0.00680443
2718	0.00807559
2730	0.00972062
2742	0.00979539
2754	0.0103936
2766	0.0136089
2778	0.017198
2790	0.0222827
2802	0.0222827
2814	0.0216097
2826	0.0215349
2838	0.0224322
2850	0.0303582
2862	0.048304
2874	0.0687921
2886	0.0960846
2898	0.13908
2910	0.180953
2922	0.261186
2934	0.275617
2946	0.316144
2958	0.402508
2970	0.458215
2982	0.552729
2994	0.613969
3006	0.547196
3018	0.514744
3030	0.455673
3042	0.356822
3054	0.263578
3066	0.246006
3078	0.140052
3090	0.0669975
3102	0.0300591
3114	0.0154034
3126	0.0112161
3138	0.0118143
3150	0.0116647
3162	0.012562
3174	0.0110666
3186	0.0074774
3198	0.00493508
3210	0.00142071
3222	0.000972062
3234	0.000972062
3246	0.000523418
3258	0.000448644
3270	0.00112161
3282	0.00119638
3294	0.000897288
3306	0.00284141
3318	0.00231799
3330	0.0034396
3342	0.00366393
3354	0.00471076
3366	0.00284141
3378	0.00299096
3390	0.00276664
3402	0.0034396
3414	0.00306573
3426	0.00157025
3438	0.00179458
3450	0.00119638
3462	0.00194412
3474	0.00231799
3486	0.00194412
3498	0.00157025
3510	0.000523418
3522	0.00276664
3534	0.00149548
3546	0.0017198
3558	0.0020189
3570	0.00276664
3582	0.00074774
3594	0.00299096
3606	0.00246754
3618	0.00306573
3630	0.00351438
3642	0.00358915
3654	0.00216845
3666	0.00396302
3678	0.00396302
3690	0.00366393
3702	0.0034396
3714	0.0040378
3726	0.00448644
3738	0.00523418
3750	0.00538373
3762	0.00598192
3774	0.00605669
3786	0.00553328
3798	0.00598192
3810	0.00426212
3822	0.00605669
3834	0.00500986
3846	0.00351438
3858	0.00336483
3870	0.00456121
3882	0.00463599
3894	0.00493508
3906	0.00448644
3918	0.00486031
3930	0.00650534
3942	0.00702876
3954	0.0071783
3966	0.00680443
