Infrared Spectrum: ACETONITRILE, DICHLORO-
Formula: C2 H Cl2 N
CAS: 3018-12-0
State: LIQUID (NEAT)
Class: COBLENTZ III
Instrument: PERKIN-ELMER 521 (GRATING)
Instrument parameters: GRATING CHANGES AT 2000, 630 CM^-^1
Sampling: TRANSMISSION
Path length: 0.0021 CM, KBr CELL
Resolution: 4
Origin: STANDARD OIL OF OHIO
1/CM	TRANSMITTANCE
297.529	0.146
307.035	0.184
316.54	0.221
326.046	0.259
335.552	0.329
345.058	0.396
354.563	0.46
364.069	0.517
373.575	0.582
383.08	0.627
392.586	0.674
402.092	0.708
411.598	0.742
421.103	0.772
430.609	0.793
440.115	0.815
449.62	0.817
459.126	0.803
468.632	0.736
478.138	0.617
487.643	0.701
497.149	0.387
506.655	0.65
516.16	0.849
525.666	0.88
535.172	0.887
544.677	0.892
554.183	0.894
563.689	0.899
573.195	0.901
582.7	0.901
592.206	0.898
601.712	0.9
611.217	0.904
620.723	0.905
630.229	0.905
639.735	0.895
649.24	0.868
658.746	0.847
668.252	0.861
677.757	0.854
687.263	0.783
696.769	0.607
706.275	0.072
715.78	0.574
725.286	0.617
734.792	0.547
744.297	0.338
753.803	0.072
763.309	0.024
772.815	0.031
782.32	0.175
791.826	0.503
801.332	0.697
810.837	0.783
820.343	0.836
829.849	0.854
839.355	0.885
848.86	0.895
858.366	0.901
867.872	0.901
877.377	0.901
886.883	0.9
896.389	0.894
905.894	0.879
915.4	0.85
924.906	0.684
934.412	0.334
943.917	0.178
953.423	0.069
962.929	0.409
972.434	0.682
981.94	0.715
991.446	0.568
1000.95	0.578
1010.46	0.83
1019.96	0.89
1029.47	0.902
1038.97	0.905
1048.48	0.906
1057.99	0.908
1067.49	0.907
1077	0.908
1086.5	0.907
1096.01	0.906
1105.51	0.902
1115.02	0.9
1124.53	0.896
1134.03	0.895
1143.54	0.888
1153.04	0.875
1162.55	0.861
1172.05	0.838
1181.56	0.738
1191.07	0.488
1200.57	0.501
1210.08	0.678
1219.58	0.759
1229.09	0.754
1238.59	0.709
1248.1	0.605
1257.61	0.521
1267.11	0.676
1276.62	0.815
1286.12	0.859
1295.63	0.877
1305.13	0.893
1314.64	0.895
1324.15	0.898
1333.65	0.899
1343.16	0.898
1352.66	0.896
1362.17	0.896
1371.67	0.895
1381.18	0.895
1390.69	0.901
1400.19	0.9
1409.7	0.894
1419.2	0.893
1428.71	0.9
1438.21	0.9
1447.72	0.896
1457.23	0.89
1466.73	0.873
1476.24	0.855
1485.74	0.869
1495.25	0.89
1504.75	0.899
1514.26	0.896
1523.77	0.894
1533.27	0.89
1542.78	0.893
1552.28	0.9
1561.79	0.904
1571.29	0.902
1580.8	0.9
1590.31	0.9
1599.81	0.9
1609.32	0.902
1618.82	0.904
1628.33	0.901
1637.83	0.895
1647.34	0.892
1656.85	0.89
1666.35	0.888
1675.86	0.881
1685.36	0.875
1694.87	0.875
1704.37	0.869
1713.88	0.869
1723.39	0.881
1732.89	0.892
1742.4	0.896
1751.9	0.898
1761.41	0.9
1770.91	0.902
1780.42	0.906
1789.93	0.906
1799.43	0.907
1808.94	0.907
1818.44	0.906
1827.95	0.906
1837.45	0.906
1846.96	0.906
1856.47	0.905
1865.97	0.905
1875.48	0.905
1884.98	0.904
1894.49	0.904
1903.99	0.905
1913.5	0.904
1923.01	0.904
1932.51	0.902
1942.02	0.9
1951.52	0.899
1961.03	0.898
1970.53	0.898
1980.04	0.898
1989.55	0.898
1999.05	0.896
2008.56	0.895
2018.06	0.895
2027.57	0.896
2037.07	0.895
2046.58	0.895
2056.09	0.895
2065.59	0.894
2075.1	0.894
2084.6	0.894
2094.11	0.895
2103.61	0.895
2113.12	0.895
2122.63	0.895
2132.13	0.894
2141.64	0.893
2151.14	0.8924
2160.65	0.89
2170.15	0.89
2179.66	0.889
2189.17	0.8838
2198.67	0.883
2208.18	0.8804
2217.68	0.88
2227.19	0.877
2236.69	0.8677
2246.2	0.8457
2255.71	0.8247
2265.21	0.8624
2274.72	0.88
2284.22	0.88
2293.73	0.88
2303.23	0.88
2312.74	0.88
2322.25	0.879
2331.75	0.877
2341.26	0.8753
2350.76	0.8636
2360.27	0.8483
2369.77	0.839
2379.28	0.831
2388.79	0.8318
2398.29	0.8378
2407.8	0.84
2417.3	0.8418
2426.81	0.8448
2436.31	0.853
2445.82	0.854
2455.33	0.854
2464.83	0.855
2474.34	0.854
2483.84	0.853
2493.35	0.8492
2502.85	0.845
2512.36	0.845
2521.87	0.845
2531.37	0.8507
2540.88	0.8609
2550.38	0.8699
2559.89	0.8749
2569.39	0.877
2578.9	0.8799
2588.41	0.88
2597.91	0.88
2607.42	0.88
2616.92	0.881
2626.43	0.88
2635.93	0.88
2645.44	0.881
2654.95	0.8801
2664.45	0.8801
2673.96	0.88
2683.46	0.88
2692.97	0.88
2702.47	0.88
2711.98	0.879
2721.49	0.876
2730.99	0.876
2740.5	0.877
2750	0.88
2759.51	0.879
2769.01	0.879
2778.52	0.88
2788.03	0.88
2797.53	0.879
2807.04	0.877
2816.54	0.877
2826.05	0.876
2835.55	0.873
2845.06	0.872
2854.57	0.869
2864.07	0.864
2873.58	0.861
2883.08	0.8588
2892.59	0.8508
2902.09	0.8448
2911.6	0.8395
2921.11	0.8238
2930.61	0.8053
2940.12	0.7806
2949.62	0.7509
2959.13	0.6908
2968.63	0.5501
2978.14	0.3299
2987.65	0.0492
2997.15	0.1186
3006.66	0.3919
3016.16	0.6398
3025.67	0.7193
3035.17	0.7535
3044.68	0.773
3054.19	0.7934
3063.69	0.8058
3073.2	0.8188
3082.7	0.8364
3092.21	0.841
3101.71	0.8515
3111.22	0.855
3120.73	0.859
3130.23	0.857
3139.74	0.857
3149.24	0.857
3158.75	0.857
3168.25	0.857
3177.76	0.857
3187.27	0.856
3196.77	0.8544
3206.28	0.8524
3215.78	0.851
3225.29	0.855
3234.79	0.8603
3244.3	0.862
3253.81	0.8623
3263.31	0.863
3272.82	0.863
3282.32	0.864
3291.83	0.8653
3301.33	0.8634
3310.84	0.863
3320.35	0.863
3329.85	0.863
3339.36	0.863
3348.86	0.862
3358.37	0.862
3367.87	0.862
3377.38	0.8624
3386.89	0.864
3396.39	0.8649
3405.9	0.866
3415.4	0.866
3424.91	0.864
3434.41	0.864
3443.92	0.864
3453.43	0.864
3462.93	0.864
3472.44	0.864
3481.94	0.866
3491.45	0.866
3500.95	0.866
3510.46	0.866
3519.96	0.866
3529.47	0.866
3538.98	0.866
3548.48	0.866
3557.99	0.866
3567.49	0.864
3577	0.864
3586.5	0.863
3596.01	0.8636
3605.52	0.863
3615.02	0.863
3624.53	0.8624
3634.03	0.862
3643.54	0.861
3653.04	0.861
3662.55	0.861
3672.06	0.8498
3681.56	0.8474
3691.07	0.8314
3700.57	0.8376
3710.08	0.8519
3719.58	0.856
3729.09	0.856
3738.6	0.856
3748.1	0.856
3757.61	0.857
3767.11	0.86
3776.62	0.86
3786.12	0.861
3795.63	0.8593
3805.14	0.861
3814.64	0.861
3824.15	0.861
3833.65	0.86
3843.16	0.861
3852.66	0.86
3862.17	0.86
3871.68	0.86
3881.18	0.859
3890.69	0.8592
