Infrared Spectrum: DICHLOROACETONITRILE
Formula: C2 H Cl2 N
CAS: 3018-12-0
State: LIQUID
Class: COBLENTZ
Instrument: Not specified, most likely a grating spectrometer.
Sampling: TRANSMISSION
Path length: 0.0015 CM
Resolution: 4
Origin: STANDARD OIL OF OHIO
1/CM	TRANSMITTANCE
520.27	0.067
529.73	0.074
539.189	0.089
548.649	0.135
558.108	0.177
567.568	0.233
577.027	0.288
586.487	0.3399
595.946	0.398
605.406	0.452
614.865	0.501
624.325	0.552
633.784	0.6159
643.244	0.65
652.703	0.655
662.163	0.6181
671.622	0.689
681.082	0.713
690.541	0.6761
700.001	0.5671
709.46	0.025
718.92	0.4326
728.379	0.527
737.839	0.462
747.298	0.2742
756.758	0.0571
766.217	0.01
775.677	0.011
785.136	0.0609
794.596	0.3879
804.055	0.598
813.515	0.7009
822.974	0.755
832.434	0.789
841.893	0.81
851.353	0.825
860.812	0.832
870.272	0.84
879.731	0.84
889.191	0.838
898.65	0.835
908.11	0.823
917.569	0.789
927.029	0.671
936.488	0.3254
945.948	0.0981
955.407	0.057
964.867	0.2194
974.326	0.5939
983.786	0.671
993.245	0.528
1002.7	0.4348
1012.16	0.7569
1021.62	0.855
1031.08	0.876
1040.54	0.883
1050	0.888
1059.46	0.891
1068.92	0.896
1078.38	0.901
1087.84	0.894
1097.3	0.901
1106.76	0.896
1116.22	0.889
1125.68	0.886
1135.14	0.889
1144.6	0.883
1154.06	0.869
1163.52	0.854
1172.98	0.828
1182.44	0.7519
1191.9	0.5013
1201.35	0.413
1210.81	0.566
1220.27	0.711
1229.73	0.733
1239.19	0.694
1248.65	0.5892
1258.11	0.437
1267.57	0.574
1277.03	0.754
1286.49	0.825
1295.95	0.854
1305.41	0.866
1314.87	0.876
1324.33	0.886
1333.79	0.893
1343.25	0.896
1352.71	0.893
1362.17	0.894
1371.63	0.893
1381.09	0.894
1390.54	0.9
1400	0.901
1409.46	0.891
1418.92	0.883
1428.38	0.886
1437.84	0.893
1447.3	0.894
1456.76	0.889
1466.22	0.871
1475.68	0.838
1485.14	0.847
1494.6	0.876
1504.06	0.898
1513.52	0.9
1522.98	0.894
1532.44	0.888
1541.9	0.888
1551.36	0.894
1560.82	0.903
1570.28	0.903
1579.73	0.9
1589.19	0.896
1598.65	0.896
1608.11	0.898
1617.57	0.9
1627.03	0.905
1636.49	0.905
1645.95	0.901
1655.41	0.896
1664.87	0.889
1674.33	0.884
1683.79	0.877
1693.25	0.872
1702.71	0.881
1712.17	0.877
1721.63	0.877
1731.09	0.886
1740.55	0.9
1750.01	0.901
1759.47	0.903
1768.92	0.908
1778.38	0.906
1787.84	0.91
1797.3	0.913
1806.76	0.915
1816.22	0.916
1825.68	0.918
1835.14	0.918
1844.6	0.918
1854.06	0.918
1863.52	0.918
1872.98	0.918
1882.44	0.918
1891.9	0.918
1901.36	0.918
1910.82	0.918
1920.28	0.918
1929.74	0.918
1939.2	0.918
1948.66	0.918
1958.12	0.916
1967.57	0.916
1977.03	0.916
1986.49	0.916
1995.95	0.916
2005.41	0.916
2014.87	0.916
2024.33	0.916
2033.79	0.916
2043.25	0.918
2052.71	0.916
2062.17	0.915
2071.63	0.914
2081.09	0.913
2090.55	0.913
2100.01	0.916
2109.47	0.916
2118.93	0.916
2128.39	0.9155
2137.85	0.913
2147.31	0.9155
2156.76	0.915
2166.22	0.916
2175.68	0.915
2185.14	0.913
2194.6	0.91
2204.06	0.907
2213.52	0.906
2222.98	0.906
2232.44	0.903
2241.9	0.886
2251.36	0.838
2260.82	0.8374
2270.28	0.898
2279.74	0.9045
2289.2	0.91
2298.66	0.912
2308.12	0.91
2317.58	0.908
2327.04	0.91
2336.5	0.915
2345.95	0.91
2355.41	0.897
2364.87	0.872
2374.33	0.8475
2383.79	0.837
2393.25	0.836
2402.71	0.844
2412.17	0.8495
2421.63	0.852
2431.09	0.865
2440.55	0.874
2450.01	0.871
2459.47	0.874
2468.93	0.876
2478.39	0.877
2487.85	0.877
2497.31	0.869
2506.77	0.859
2516.23	0.862
2525.69	0.8665
2535.15	0.874
2544.6	0.891
2554.06	0.9
2563.52	0.904
2572.98	0.908
2582.44	0.9105
2591.9	0.913
2601.36	0.9155
2610.82	0.916
2620.28	0.915
2629.74	0.916
2639.2	0.918
2648.66	0.915
2658.12	0.9155
2667.58	0.916
2677.04	0.9155
2686.5	0.915
2695.96	0.915
2705.42	0.911
2714.88	0.907
2724.34	0.901
2733.79	0.904
2743.25	0.908
2752.71	0.91
2762.17	0.911
2771.63	0.911
2781.09	0.911
2790.55	0.9105
2800.01	0.91
2809.47	0.908
2818.93	0.908
2828.39	0.9055
2837.85	0.903
2847.31	0.901
2856.77	0.9
2866.23	0.894
2875.69	0.889
2885.15	0.882
2894.61	0.876
2904.07	0.8605
2913.53	0.855
2922.98	0.842
2932.44	0.825
2941.9	0.7951
2951.36	0.725
2960.82	0.6227
2970.28	0.4088
2979.74	0.133
2989.2	0.028
2998.66	0.1179
3008.12	0.533
3017.58	0.6833
3027.04	0.75
3036.5	0.7835
3045.96	0.803
3055.42	0.819
3064.88	0.828
3074.34	0.8385
3083.8	0.852
3093.26	0.864
3102.72	0.877
3112.17	0.884
3121.63	0.884
3131.09	0.892
3140.55	0.888
3150.01	0.886
3159.47	0.884
3168.93	0.886
3178.39	0.888
3187.85	0.887
3197.31	0.884
3206.77	0.878
3216.23	0.877
3225.69	0.8835
3235.15	0.891
3244.61	0.895
3254.07	0.898
3263.53	0.895
3272.99	0.896
3282.45	0.899
3291.91	0.9
3301.37	0.901
3310.82	0.901
3320.28	0.9005
3329.74	0.9
3339.2	0.896
3348.66	0.898
3358.12	0.898
3367.58	0.901
3377.04	0.901
3386.5	0.901
3395.96	0.903
3405.42	0.903
3414.88	0.905
3424.34	0.905
3433.8	0.904
3443.26	0.903
3452.72	0.901
3462.18	0.9
3471.64	0.901
3481.1	0.903
3490.56	0.903
3500.01	0.905
3509.47	0.905
3518.93	0.905
3528.39	0.902
3537.85	0.901
3547.31	0.905
3556.77	0.906
3566.23	0.906
3575.69	0.896
3585.15	0.897
3594.61	0.903
3604.07	0.899
3613.53	0.903
3622.99	0.903
3632.45	0.901
3641.91	0.9005
3651.37	0.9
3660.83	0.898
3670.29	0.894
3679.75	0.8815
3689.2	0.864
3698.66	0.8745
3708.12	0.898
3717.58	0.901
3727.04	0.903
3736.5	0.905
3745.96	0.905
3755.42	0.903
3764.88	0.901
3774.34	0.901
3783.8	0.901
3793.26	0.905
3802.72	0.906
3812.18	0.9105
3821.64	0.91
3831.1	0.9105
3840.56	0.908
3850.02	0.907
3859.48	0.91
3868.94	0.911
3878.4	0.911
3887.85	0.91
