Infrared Spectrum: PROPANE, 1-BROMO-3-CHLORO-
Formula: C3 H6 Br Cl
CAS: 109-70-6
State: SOLUTION (10% IN CCl4 FOR 3800-1333, AND 10% IN CS2 FOR 1333-450 CM^-^1)
Class: COBLENTZ III
Instrument: DOW KBr FOREPRISM-GRATING
Instrument parameters: BLAZED AT 3.5, 12.0, 20.0 MICRON, CHANGED AT 5.0, 7.5, 14.9 MICRON
Sampling: TRANSMISSION
Path length: 0.011, 0.011 CM
Resolution: 4
Origin: DOW CHEMICAL COMPANY
1/CM	TRANSMITTANCE
450.407	1.062
459.098	1.064
467.789	1.065
476.48	1.072
485.171	1.073
493.862	1.079
502.553	1.081
511.244	1.083
519.935	1.083
528.625	1.085
537.316	1.087
546.007	1.083
554.698	1.062
563.389	0.99
572.08	0.595
580.771	0.991
589.462	1.073
598.153	1.072
606.844	1.066
615.535	1.064
624.226	1.047
632.917	0.987
641.608	0.965
650.299	0.867
658.99	0.722
667.68	0.536
676.371	0.945
685.062	1.006
693.753	1.028
702.444	1.029
711.135	1.019
719.826	0.978
728.517	0.903
737.208	1.002
745.899	1.012
754.59	0.991
763.281	0.888
771.972	0.738
780.663	0.6
789.354	0.671
798.045	0.931
806.735	0.998
815.426	1.017
824.117	1.016
832.808	0.993
841.499	0.866
850.19	0.809
858.881	0.628
867.572	0.787
876.263	0.892
884.954	0.957
893.645	1.001
902.336	1.024
911.027	1.023
919.718	1.021
928.409	1.01
937.1	0.983
945.79	0.888
954.481	0.773
963.172	0.949
971.863	1.002
980.554	1.01
989.245	1.032
997.936	1.036
1006.63	1.034
1015.32	1.016
1024.01	1.028
1032.7	1.024
1041.39	1.032
1050.08	1.024
1058.77	0.98
1067.46	0.994
1076.15	0.916
1084.85	1.008
1093.54	1.032
1102.23	1.036
1110.92	1.038
1119.61	1.029
1128.3	1.025
1136.99	1.021
1145.68	1.012
1154.37	1.032
1163.06	1.034
1171.75	1.031
1180.45	0.997
1189.14	1.014
1197.83	1.016
1206.52	0.976
1215.21	0.998
1223.9	0.971
1232.59	0.81
1241.28	0.3779
1249.97	0.542
1258.66	0.613
1267.36	0.333
1276.05	0.82
1284.74	0.889
1293.43	0.84
1302.12	0.742
1310.81	0.621
1319.5	0.878
1328.19	0.918
1336.88	0.91
1345.57	0.877
1354.26	0.881
1362.96	0.953
1371.65	0.997
1380.34	0.998
1389.03	1.001
1397.72	0.997
1406.41	0.976
1415.1	0.933
1423.79	0.617
1432.48	0.794
1441.17	0.536
1449.86	0.6751
1458.56	0.886
1467.25	0.93
1475.94	0.949
1484.63	0.93
1493.32	0.903
1502.01	0.859
1510.7	0.806
1519.39	0.758
1528.08	0.723
1536.77	0.647
1545.47	0.54
1554.16	0.516
1562.85	0.598
1571.54	0.674
1580.23	0.707
1588.92	0.732
1597.61	0.809
1606.3	0.893
1614.99	0.952
1623.68	0.976
1632.37	0.993
1641.07	1.017
1649.76	1.024
1658.45	1.01
1667.14	1
1675.83	0.998
1684.52	1
1693.21	0.998
1701.9	0.998
1710.59	1
1719.28	1
1727.97	1
1736.67	0.998
1745.36	0.998
1754.05	1
1762.74	1.001
1771.43	1.002
1780.12	1.001
1788.81	1.001
1797.5	0.998
1806.19	0.997
1814.88	0.997
1823.58	0.994
1832.27	0.995
1840.96	0.993
1849.65	0.993
1858.34	0.99
1867.03	0.993
1875.72	0.998
1884.41	0.994
1893.1	0.997
1901.79	0.997
1910.48	0.994
1919.18	0.995
1927.87	0.998
1936.56	0.995
1945.25	1
1953.94	0.998
1962.63	1
1971.32	1
1980.01	1
1988.7	1
1997.39	1
2006.08	1.0015
2014.78	0.9975
2023.47	0.998
2032.16	1
2040.85	1.0034
2049.54	1.012
2058.23	1.005
2066.92	1.002
2075.61	0.997
2084.3	1.0029
2092.99	1.0031
2101.69	1.0005
2110.38	0.9989
2119.07	1.002
2127.76	1.001
2136.45	1.001
2145.14	1
2153.83	1
2162.52	1.0005
2171.21	1.001
2179.9	0.998
2188.59	0.998
2197.29	0.9961
2205.98	0.9917
2214.67	0.9896
2223.36	0.989
2232.05	0.9894
2240.74	0.99
2249.43	0.989
2258.12	0.9882
2266.81	0.986
2275.5	0.9826
2284.19	0.9706
2292.89	0.9668
2301.58	0.9652
2310.27	0.9728
2318.96	0.978
2327.65	0.9876
2336.34	0.9896
2345.03	0.983
2353.72	0.983
2362.41	0.979
2371.1	0.979
2379.8	0.978
2388.49	0.9704
2397.18	0.978
2405.87	0.9794
2414.56	0.9837
2423.25	0.985
2431.94	0.986
2440.63	0.986
2449.32	0.9856
2458.01	0.986
2466.7	0.986
2475.4	0.986
2484.09	0.986
2492.78	0.9813
2501.47	0.9837
2510.16	0.986
2518.85	0.985
2527.54	0.985
2536.23	0.985
2544.92	0.983
2553.61	0.9827
2562.3	0.979
2571	0.979
2579.69	0.982
2588.38	0.979
2597.07	0.982
2605.76	0.979
2614.45	0.979
2623.14	0.979
2631.83	0.982
2640.52	0.982
2649.21	0.98
2657.91	0.978
2666.6	0.978
2675.29	0.9742
2683.98	0.97
2692.67	0.97
2701.36	0.971
2710.05	0.97
2718.74	0.9743
2727.43	0.976
2736.12	0.9717
2744.81	0.97
2753.51	0.97
2762.2	0.971
2770.89	0.97
2779.58	0.968
2788.27	0.968
2796.96	0.968
2805.65	0.9648
2814.34	0.9608
2823.03	0.9454
2831.72	0.9347
2840.41	0.9488
2849.11	0.9332
2857.8	0.886
2866.49	0.8794
2875.18	0.8898
2883.87	0.9222
2892.56	0.9181
2901.25	0.8975
2909.94	0.7859
2918.63	0.7918
2927.32	0.8178
2936.02	0.8312
2944.71	0.848
2953.4	0.8071
2962.09	0.6042
2970.78	0.5359
2979.47	0.646
2988.16	0.8315
2996.85	0.8726
3005.54	0.8533
3014.23	0.8784
3022.92	0.9137
3031.62	0.9407
3040.31	0.9533
3049	0.959
3057.69	0.96
3066.38	0.963
3075.07	0.963
3083.76	0.9642
3092.45	0.968
3101.14	0.9683
3109.83	0.9703
3118.53	0.971
3127.22	0.971
3135.91	0.971
3144.6	0.972
3153.29	0.974
3161.98	0.974
3170.67	0.974
3179.36	0.9763
3188.05	0.978
3196.74	0.979
3205.43	0.9802
3214.13	0.983
3222.82	0.985
3231.51	0.986
3240.2	0.9872
3248.89	0.9872
3257.58	0.991
3266.27	0.9941
3274.96	1
3283.65	1.001
3292.34	1.002
3301.03	1.0041
3309.73	1.0081
3318.42	1.01
3327.11	1.01
3335.8	1.0079
3344.49	1.0062
3353.18	1.012
3361.87	1.01
3370.56	1.014
3379.25	1.016
3387.94	1.017
3396.64	1.023
3405.33	1.024
3414.02	1.0239
3422.71	1.021
3431.4	1.021
3440.09	1.017
3448.78	1.014
3457.47	1.0159
3466.16	1.012
3474.85	1.012
3483.54	1.01
3492.24	1.0079
3500.93	1.005
3509.62	1.004
3518.31	1.002
3527	1.001
3535.69	1.002
3544.38	1
3553.07	1
3561.76	1.002
3570.45	1.002
3579.14	0.998
3587.84	1
3596.53	0.995
3605.22	0.998
3613.91	0.998
3622.6	0.995
3631.29	0.994
3639.98	0.995
3648.67	0.997
3657.36	0.998
3666.05	0.998
3674.75	0.995
3683.44	0.998
3692.13	1.001
3700.82	0.998
3709.51	1.001
3718.2	0.9951
3726.89	1
3735.58	1
3744.27	0.9951
3752.96	0.9999
3761.65	0.995
3770.35	0.994
3779.04	0.9969
3787.73	0.9949
