Infrared Spectrum: Propane, 1-bromo-3-chloro-
Formula: C 3 H 6 Br Cl
CAS: 109-70-6
State: gas
Origin: Sadtler Research Labs Under US-EPA Contract
1/CM	ABSORBANCE
450	0
462	0.0167607
474	0.0197021
486	0.0157617
498	0.0203681
510	0.0152067
522	0.0132643
534	0.0221996
546	0.0172047
558	0.0667653
570	0.195134
582	0.176431
594	0.0397373
606	0.0261955
618	0.0357969
630	0.0535565
642	0.0932383
654	0.141578
666	0.241865
678	0.191916
690	0.0714272
702	0.0416797
714	0.0482841
726	0.0865784
738	0.103395
750	0.0555545
762	0.0879104
774	0.210452
786	0.376172
798	0.211396
810	0.0599944
822	0.0403478
834	0.0879104
846	0.140246
858	0.108723
870	0.0669318
882	0.0359634
894	0.028915
906	0.0349644
918	0.0240866
930	0.0368513
942	0.085857
954	0.160392
966	0.0902414
978	0.0334104
990	0.0222551
1002	0.0199241
1014	0.0281935
1026	0.0271945
1038	0.0263065
1050	0.0340209
1062	0.0579965
1074	0.0582185
1086	0.0328554
1098	0.0172047
1110	0.0160392
1122	0.0248081
1134	0.0233096
1146	0.0248636
1158	0.0227546
1170	0.0226991
1182	0.0346314
1194	0.0404033
1206	0.057608
1218	0.0625474
1230	0.159116
1242	0.449098
1254	0.490112
1266	0.547276
1278	0.33538
1290	0.16683
1302	0.219943
1314	0.210785
1326	0.139191
1338	0.112829
1350	0.113773
1362	0.0788641
1374	0.0333549
1386	0.0217001
1398	0.0226991
1410	0.0473406
1422	0.114106
1434	0.217778
1446	0.307409
1458	0.179983
1470	0.0709277
1482	0.0324114
1494	0.0199796
1506	0.0188142
1518	0.0162057
1530	0.0140412
1542	0.0149847
1554	0.0137638
1566	0.0134308
1578	0.0145962
1590	0.0129313
1602	0.0130978
1614	0.0135418
1626	0.0132088
1638	0.0140412
1650	0.0137638
1662	0.0126538
1674	0.0132643
1686	0.0140412
1698	0.0134863
1710	0.0132088
1722	0.0127648
1734	0.0128203
1746	0.0129313
1758	0.0125983
1770	0.0130978
1782	0.0124873
1794	0.0127093
1806	0.0134308
1818	0.0130423
1830	0.0129868
1842	0.0134863
1854	0.0130423
1866	0.0128758
1878	0.0130423
1890	0.0133753
1902	0.0143742
1914	0.0145407
1926	0.0142632
1938	0.0138747
1950	0.0123208
1962	0.0128758
1974	0.0132643
1986	0.0130423
1998	0.0135418
2010	0.0144852
2022	0.0148737
2034	0.0158727
2046	0.0157617
2058	0.0153732
2070	0.0164832
2082	0.0152067
2094	0.0150402
2106	0.0156507
2118	0.0142632
2130	0.0144852
2142	0.0135418
2154	0.0133198
2166	0.0133753
2178	0.0141522
2190	0.0153732
2202	0.0174267
2214	0.0175932
2226	0.0180927
2238	0.0171492
2250	0.0155952
2262	0.0156507
2274	0.0156507
2286	0.0160947
2298	0.0180372
2310	0.0177042
2322	0.0150402
2334	0.0128758
2346	0.0132088
2358	0.0143742
2370	0.0125428
2382	0.0152067
2394	0.0174267
2406	0.0186477
2418	0.0169827
2430	0.0157617
2442	0.0146517
2454	0.0138193
2466	0.0142077
2478	0.0145407
2490	0.0158727
2502	0.0152622
2514	0.0137083
2526	0.0127648
2538	0.0126538
2550	0.0124873
2562	0.0133753
2574	0.0134863
2586	0.0134308
2598	0.0132643
2610	0.0123763
2622	0.0128758
2634	0.0127093
2646	0.0131533
2658	0.0143187
2670	0.0165387
2682	0.0207011
2694	0.0223106
2706	0.0208121
2718	0.0195356
2730	0.0176487
2742	0.0162057
2754	0.0176487
2766	0.0175932
2778	0.0166497
2790	0.0171492
2802	0.0168717
2814	0.0178152
2826	0.0270835
2838	0.0364628
2850	0.0435667
2862	0.0602164
2874	0.0766441
2886	0.0771991
2898	0.0715382
2910	0.108778
2922	0.15351
2934	0.169327
2946	0.16289
2958	0.209564
2970	0.334215
2982	0.359634
2994	0.249357
3006	0.182425
3018	0.144464
3030	0.0796411
3042	0.0410693
3054	0.0230321
3066	0.0190362
3078	0.0175377
3090	0.0164277
3102	0.0159837
3114	0.0152622
3126	0.0154287
3138	0.0153732
3150	0.0152067
3162	0.0139857
3174	0.0145962
3186	0.0145407
3198	0.0140412
3210	0.0142632
3222	0.0136528
3234	0.0133753
3246	0.0142077
3258	0.0133198
3270	0.0141522
3282	0.0142077
3294	0.0131533
3306	0.0131533
3318	0.0139857
3330	0.0143187
3342	0.0148737
3354	0.0145407
3366	0.0140412
3378	0.0142077
3390	0.0137083
3402	0.0142077
3414	0.0145962
3426	0.0153177
3438	0.0143742
3450	0.0145962
3462	0.0132643
3474	0.0149847
3486	0.0158172
3498	0.0157062
3510	0.0143742
3522	0.0159282
3534	0.0155397
3546	0.0149292
3558	0.0149292
3570	0.0146517
3582	0.0165387
3594	0.0145407
3606	0.0170937
3618	0.0156507
3630	0.0163722
3642	0.0173157
3654	0.0169827
3666	0.0183147
3678	0.0189252
3690	0.0199241
3702	0.0188142
3714	0.0180927
3726	0.0183147
3738	0.0192027
3750	0.0184257
3762	0.0177597
3774	0.0185922
3786	0.0170382
3798	0.0170382
3810	0.0182037
3822	0.0197021
3834	0.0185367
3846	0.0200906
3858	0.0183702
3870	0.0182037
3882	0.0163722
3894	0.0198131
3906	0.0182592
3918	0.0194246
3930	0.0207011
3942	0.0191472
3954	0.0200906
3966	0.0200906
