Infrared Spectrum: Pentane, 1-bromo-
Formula: C 5 H 11 Br
CAS: 110-53-2
State: gas
Origin: Sadtler Research Labs Under US-EPA Contract
1/CM	ABSORBANCE
450	0.00940621
462	0.00551145
474	0.00778952
486	0.0148442
498	0.00823043
510	0.0047031
522	0.0063198
534	0.0063198
546	0.0278512
558	0.0404908
570	0.0648881
582	0.0292474
594	0.00896529
606	0.00205761
618	0.0121987
630	0.0214579
642	0.0756171
654	0.0803937
666	0.0210905
678	0.0121252
690	0.00940621
702	0.0144767
714	0.0194738
726	0.036743
738	0.0482803
750	0.0322604
762	0.0218253
774	0.021017
786	0.021017
798	0.0202086
810	0.0149177
822	0.0130805
834	0.0174897
846	0.0192533
858	0.015579
870	0.0152851
882	0.0141093
894	0.018151
906	0.0203556
918	0.0307171
930	0.0311581
942	0.0164609
954	0.0147707
966	0.0150646
978	0.0108024
990	0.00881832
1002	0.0110964
1014	0.018445
1026	0.0243974
1038	0.0213844
1050	0.0151381
1062	0.0149177
1074	0.0144033
1086	0.01286
1098	0.01286
1110	0.0135214
1122	0.00962667
1134	0.00800997
1146	0.00808346
1158	0.00992061
1170	0.0148442
1182	0.018298
1194	0.0294679
1206	0.0820104
1218	0.092078
1230	0.0522485
1242	0.0957523
1254	0.180776
1266	0.155717
1278	0.103689
1290	0.0709875
1302	0.0720163
1314	0.0462962
1326	0.0318929
1338	0.0399029
1350	0.0390946
1362	0.031452
1374	0.0340975
1386	0.0446795
1398	0.0309376
1410	0.0205761
1422	0.0305702
1434	0.062904
1446	0.103542
1458	0.115814
1470	0.103468
1482	0.0623896
1494	0.028733
1506	0.0199147
1518	0.013154
1530	0.010582
1542	0.0165343
1554	0.0099941
1566	0.00815695
1578	0.00925924
1590	0.00639328
1602	0.00654025
1614	0.00543796
1626	0.00595237
1638	0.00933272
1650	0.00749557
1662	0.00661374
1674	0.00602585
1686	0.0103615
1698	0.00962667
1710	0.00551145
1722	0.00573191
1734	0.00903878
1746	0.00654025
1758	0.00676071
1770	0.00639328
1782	0.00455613
1794	0.00617282
1806	0.0031599
1818	0.00293944
1830	0.00249852
1842	0.00286595
1854	0.00279247
1866	0.00235155
1878	0.00191064
1890	0.00242504
1902	0.00323338
1914	0.00330687
1926	0.00242504
1938	0.00271898
1950	0.00404173
1962	0.00330687
1974	0.00330687
1986	0.00227807
1998	0.00308641
2010	0.00389476
2022	0.00433567
2034	0.00455613
2046	0.00411522
2058	0.00440916
2070	0.00440916
2082	0.00360081
2094	0.00345384
2106	0.00323338
2118	0.0036743
2130	0.00360081
2142	0.0031599
2154	0.00440916
2166	0.00455613
2178	0.00536448
2190	0.00411522
2202	0.00404173
2214	0.00507053
2226	0.00485008
2238	0.00462962
2250	0.00411522
2262	0.00440916
2274	0.0041887
2286	0.0036743
2298	0.00279247
2310	0.00139623
2322	0.00036743
2334	0.00036743
2346	0.00036743
2358	0.00036743
2370	0.00036743
2382	0.00404173
2394	0.00595237
2406	0.00514402
2418	0.00595237
2430	0.00543796
2442	0.00492356
2454	0.00499705
2466	0.00374779
2478	0.00396824
2490	0.00389476
2502	0.00286595
2514	0.00389476
2526	0.0031599
2538	0.0041887
2550	0.00396824
2562	0.00382127
2574	0.00426219
2586	0.00485008
2598	0.00558494
2610	0.00565842
2622	0.00676071
2634	0.00771603
2646	0.00815695
2658	0.00823043
2670	0.00874483
2682	0.00962667
2694	0.0102146
2706	0.00955318
2718	0.00911226
2730	0.00955318
2742	0.0124926
2754	0.0138154
2766	0.0113903
2778	0.0120517
2790	0.0154321
2802	0.0207965
2814	0.0248383
2826	0.0345384
2838	0.0640063
2850	0.120003
2862	0.205393
2874	0.286301
2886	0.320105
2898	0.265946
2910	0.263741
2922	0.371104
2934	0.558641
2946	0.661521
2958	0.59046
2970	0.73486
2982	0.508303
2994	0.182466
3006	0.108686
3018	0.0955318
3030	0.0583479
3042	0.0342445
3054	0.0230011
3066	0.0172692
3078	0.0147707
3090	0.0118312
3102	0.0115373
3114	0.0108024
3126	0.00992061
3138	0.00889181
3150	0.00859786
3162	0.00940621
3174	0.00933272
3186	0.00808346
3198	0.00705466
3210	0.00712814
3222	0.00536448
3234	0.00455613
3246	0.00360081
3258	0.00404173
3270	0.00477659
3282	0.00426219
3294	0.00293944
3306	0.00213109
3318	0.00448265
3330	0.0031599
3342	0.00279247
3354	0.00198412
3366	0.00404173
3378	0.00448265
3390	0.00220458
3402	0.00205761
3414	0.00286595
3426	0.00293944
3438	0.00345384
3450	0.00198412
3462	0.00161669
3474	0.0031599
3486	0.00235155
3498	0.00249852
3510	0.000808346
3522	0.0026455
3534	0.00338036
3546	0.00330687
3558	0.0026455
3570	0.00323338
3582	0.00279247
3594	0.00308641
3606	0.00169018
3618	0.00183715
3630	0.00565842
3642	0.00301293
3654	0.00257201
3666	0.00161669
3678	0.00338036
3690	0.0041887
3702	0.000955318
3714	0.00249852
3726	0.00073486
3738	0.0026455
3750	0.00352733
3762	0.00036743
3774	0.00036743
3786	0.000808346
3798	0.00198412
3810	0.00139623
3822	0.00220458
3834	0.00198412
3846	0.00301293
3858	0.00146972
3870	0.000808346
3882	0.00183715
3894	0.0026455
3906	0.00176366
3918	0.00117578
3930	0.00036743
3942	0.000587888
3954	0.000293944
3966	0.00036743
