Infrared Spectrum: N-AMYL BROMIDE
Formula: C5 H11 Br
CAS: 110-53-2
State: LIQUID
Class: COBLENTZ
Instrument: Not specified, most likely a prism, grating, or hybrid spectrometer.
Sampling: TRANSMISSION
Path length: 0.0036 CM
Resolution: 4
Origin: CONTINENTAL OIL CO. (HAROLD F. SMITH)
MICROMETERS	TRANSMITTANCE
12.031	0.828
12.0681	0.825
12.1052	0.817
12.1423	0.797
12.1794	0.739
12.2165	0.733
12.2536	0.767
12.2907	0.82
12.3278	0.851
12.3649	0.846
12.402	0.857
12.4391	0.866
12.4762	0.877
12.5133	0.883
12.5504	0.893
12.5875	0.894
12.6246	0.886
12.6617	0.882
12.6988	0.871
12.7359	0.848
12.773	0.811
12.8101	0.744
12.8472	0.698
12.8843	0.722
12.9214	0.761
12.9585	0.787
12.9956	0.798
13.0327	0.794
13.0698	0.769
13.1069	0.77
13.144	0.77
13.1811	0.777
13.2182	0.772
13.2553	0.763
13.2924	0.752
13.3295	0.729
13.3667	0.713
13.4038	0.682
13.4409	0.628
13.478	0.563
13.5151	0.495
13.5522	0.478
13.5893	0.465
13.6264	0.438
13.6635	0.399
13.7006	0.334
13.7377	0.253
13.7748	0.218
13.8119	0.222
13.849	0.289
13.8861	0.385
13.9232	0.49
13.9603	0.591
13.9974	0.67
14.0345	0.726
14.0716	0.752
14.1087	0.794
14.1458	0.804
14.1829	0.82
14.22	0.837
14.2571	0.848
14.2942	0.842
14.3313	0.862
14.3684	0.877
14.4055	0.879
14.4426	0.88
14.4797	0.888
14.5168	0.877
14.5539	0.877
14.591	0.882
14.6281	0.882
14.6652	0.877
14.7023	0.871
14.7394	0.879
14.7765	0.871
14.8136	0.865
14.8507	0.857
14.8878	0.854
14.9249	0.842
14.962	0.832
14.9991	0.821
15.0362	0.808
15.0733	0.791
15.1104	0.767
15.1475	0.741
15.1846	0.719
15.2217	0.693
15.2588	0.657
15.2959	0.605
15.333	0.54
15.3701	0.469
15.4072	0.396
15.4443	0.328
15.4814	0.26
15.5185	0.201
15.5556	0.164
15.5927	0.136
15.6298	0.126
15.6669	0.128
15.704	0.151
15.7411	0.179
15.7782	0.238
15.8153	0.309
15.8524	0.405
15.8895	0.486
15.9266	0.557
15.9638	0.599
16.0009	0.651
16.038	0.679
16.0751	0.715
16.1122	0.733
16.1493	0.744
16.1864	0.744
16.2235	0.752
16.2606	0.769
16.2977	0.77
16.3348	0.781
16.3719	0.798
16.409	0.8
16.4461	0.814
16.4832	0.812
16.5203	0.815
16.5574	0.817
16.5945	0.803
16.6316	0.808
16.6687	0.801
16.7058	0.811
16.7429	0.812
16.78	0.817
16.8171	0.815
16.8542	0.817
16.8913	0.817
16.9284	0.811
16.9655	0.809
17.0026	0.803
17.0397	0.791
17.0768	0.794
17.1139	0.781
17.151	0.78
17.1881	0.758
17.2252	0.743
17.2623	0.718
17.2994	0.704
17.3365	0.659
17.3736	0.628
17.4107	0.582
17.4478	0.53
17.4849	0.47
17.522	0.421
17.5591	0.369
17.5962	0.318
17.6333	0.272
17.6704	0.227
17.7075	0.198
17.7446	0.159
17.7817	0.15
17.8188	0.143
17.8559	0.15
17.893	0.181
17.9301	0.224
17.9672	0.255
18.0043	0.315
18.0414	0.402
18.0785	0.455
18.1156	0.512
18.1527	0.558
18.1898	0.6
18.2269	0.648
18.264	0.67
18.3011	0.699
18.3382	0.708
18.3753	0.729
18.4124	0.743
18.4495	0.749
18.4866	0.749
18.5237	0.761
18.5608	0.764
18.598	0.76
18.6351	0.767
18.6722	0.77
18.7093	0.772
18.7464	0.773
18.7835	0.775
18.8206	0.781
18.8577	0.784
18.8948	0.8
18.9319	0.806
18.969	0.809
19.0061	0.818
19.0432	0.823
19.0803	0.832
19.1174	0.839
19.1545	0.839
19.1916	0.84
19.2287	0.842
19.2658	0.839
19.3029	0.842
19.34	0.842
19.3771	0.848
19.4142	0.843
19.4513	0.835
19.4884	0.839
19.5255	0.837
19.5626	0.837
19.5997	0.84
19.6368	0.839
19.6739	0.84
19.711	0.848
19.7481	0.848
19.7852	0.857
19.8223	0.852
19.8594	0.857
19.8965	0.859
19.9336	0.862
19.9707	0.862
20.0078	0.86
20.0449	0.869
20.082	0.873
20.1191	0.857
20.1562	0.862
20.1933	0.849
20.2304	0.851
20.2675	0.845
20.3046	0.839
20.3417	0.835
20.3788	0.831
20.4159	0.826
20.453	0.818
20.4901	0.818
20.5272	0.806
20.5643	0.803
20.6014	0.804
20.6385	0.806
20.6756	0.812
20.7127	0.808
20.7498	0.808
20.7869	0.809
20.824	0.808
20.8611	0.808
20.8982	0.808
20.9353	0.818
20.9724	0.812
21.0095	0.817
21.0466	0.825
21.0837	0.828
21.1208	0.831
21.1579	0.828
21.1951	0.825
21.2322	0.821
21.2693	0.825
21.3064	0.815
21.3435	0.817
21.3806	0.817
21.4177	0.817
21.4548	0.829
21.4919	0.832
21.529	0.835
21.5661	0.84
21.6032	0.845
21.6403	0.852
21.6774	0.868
21.7145	0.868
21.7516	0.871
21.7887	0.876
21.8258	0.886
21.8629	0.877
21.9	0.879
21.9371	0.879
21.9742	0.888
22.0113	0.89
22.0484	0.891
22.0855	0.897
22.1226	0.886
22.1597	0.88
22.1968	0.879
22.2339	0.888
22.271	0.888
22.3081	0.879
22.3452	0.877
22.3823	0.871
22.4194	0.871
22.4565	0.873
22.4936	0.863
22.5307	0.862
22.5678	0.86
22.6049	0.843
22.642	0.828
22.6791	0.818
22.7162	0.8
22.7533	0.778
22.7904	0.747
22.8275	0.739
22.8646	0.739
22.9017	0.738
22.9388	0.744
22.9759	0.767
23.013	0.789
23.0501	0.8
23.0872	0.817
23.1243	0.828
23.1614	0.837
23.1985	0.848
23.2356	0.854
23.2727	0.862
23.3098	0.865
23.3469	0.869
23.384	0.873
23.4211	0.868
23.4582	0.876
23.4953	0.868
23.5324	0.877
23.5695	0.883
23.6066	0.879
23.6437	0.879
23.6808	0.868
23.7179	0.869
23.755	0.86
23.7921	0.863
23.8293	0.857
23.8664	0.842
23.9035	0.843
23.9406	0.842
23.9777	0.839
24.0148	0.848
24.0519	0.852
24.089	0.857
24.1261	0.862
24.1632	0.863
24.2003	0.859
24.2374	0.862
24.2745	0.851
24.3116	0.837
24.3487	0.834
24.3858	0.832
24.4229	0.834
24.46	0.829
24.4971	0.82
24.5342	0.814
24.5713	0.809
24.6084	0.806
24.6455	0.789
24.6826	0.798
24.7197	0.791
24.7568	0.789
24.7939	0.787
24.831	0.78
24.8681	0.769
24.9052	0.761
24.9423	0.749
24.9794	0.744
25.0165	0.735
25.0536	0.727
25.0907	0.713
25.1278	0.699
25.1649	0.702
25.202	0.701
25.2391	0.702
25.2762	0.716
25.3133	0.708
25.3504	0.705
25.3875	0.705
25.4246	0.702
25.4617	0.702
25.4988	0.701
25.5359	0.701
25.573	0.698
25.6101	0.698
25.6472	0.693
25.6843	0.685
25.7214	0.685
25.7585	0.678
25.7956	0.674
25.8327	0.668
25.8698	0.654
25.9069	0.648
25.944	0.648
25.9811	0.651
