Infrared Spectrum: Ethylarsonic acid
Formula: C2 H7 As O3
CAS: 507-32-4
State: SOLID (SPLIT MULL)
Class: COBLENTZ III
Instrument: DOW KBr FOREPRISM-GRATING
Instrument parameters: BLAZED AT 3.5, 12.0, 20.0 MICRON AND CHANGED AT 5.0, 7.5, 14.9 MICRON
Sampling: TRANSMISSION
Resolution: 2
Origin: DOW CHEMICAL COMPANY
1/CM	TRANSMITTANCE
3800	0.99
3791	0.9902
3782	0.9906
3773	0.9909
3764	0.9916
3755	0.994
3746	0.9959
3737	0.9975
3728	0.9991
3719	1.0001
3710	1.001
3701	1.0017
3692	0.9996
3683	0.9921
3674	0.993
3665	0.9963
3656	0.9968
3647	0.9958
3638	0.9936
3629	0.9884
3620	0.9805
3611	0.9715
3602	0.9604
3593	0.9481
3584	0.9356
3575	0.9243
3566	0.915
3557	0.9095
3548	0.9057
3539	0.9025
3530	0.8999
3521	0.8977
3512	0.8961
3503	0.8951
3494	0.8948
3485	0.8951
3476	0.8966
3467	0.8997
3458	0.9031
3449	0.9062
3440	0.9095
3431	0.9125
3422	0.9155
3413	0.9184
3404	0.9214
3395	0.9242
3386	0.9274
3377	0.9307
3368	0.9336
3359	0.936
3350	0.9374
3341	0.9381
3332	0.9382
3323	0.9378
3314	0.9373
3305	0.9357
3296	0.9332
3287	0.9287
3278	0.923
3269	0.9174
3260	0.9109
3251	0.9031
3242	0.8954
3233	0.8868
3224	0.8786
3215	0.8696
3206	0.8589
3197	0.8485
3188	0.8337
3179	0.8168
3170	0.8008
3161	0.7861
3152	0.7707
3143	0.7522
3134	0.7326
3125	0.7138
3116	0.6957
3107	0.6775
3098	0.6595
3089	0.6415
3080	0.6259
3071	0.6085
3062	0.5906
3053	0.5734
3044	0.5568
3035	0.5402
3026	0.5244
3017	0.5108
3008	0.4953
2999	0.4788
2990	0.4592
2981	0.4007
2972	0.4219
2963	0.4283
2954	0.4132
2945	0.3662
2936	0.3742
2927	0.3807
2918	0.375
2909	0.3662
2900	0.363
2891	0.3566
2882	0.3178
2873	0.3268
2864	0.3282
2855	0.3221
2846	0.3166
2837	0.3109
2828	0.3053
2819	0.3007
2810	0.2961
2801	0.2926
2792	0.2893
2783	0.287
2774	0.285
2765	0.2833
2756	0.2816
2747	0.2809
2738	0.2806
2729	0.2802
2720	0.2806
2711	0.2809
2702	0.2816
2693	0.2827
2684	0.2851
2675	0.2879
2666	0.2913
2657	0.2947
2648	0.2985
2639	0.3042
2630	0.3104
2621	0.3192
2612	0.3297
2603	0.3406
2594	0.3542
2585	0.3676
2576	0.3799
2567	0.3918
2558	0.4036
2549	0.4152
2540	0.4268
2531	0.4384
2522	0.4495
2513	0.4586
2504	0.4668
2495	0.4737
2486	0.4791
2477	0.4817
2468	0.4825
2459	0.4823
2450	0.481
2441	0.4773
2432	0.4721
2423	0.4617
2414	0.4458
2405	0.4275
2396	0.4105
2387	0.3902
2378	0.3688
2369	0.346
2360	0.3254
2351	0.3078
2342	0.2932
2333	0.282
2324	0.2758
2315	0.2712
2306	0.2703
2297	0.2702
2288	0.273
2279	0.279
2270	0.2885
2261	0.3022
2252	0.3188
2243	0.338
2234	0.3597
2225	0.378
2216	0.3932
2207	0.4088
2198	0.4217
2189	0.4372
2180	0.4562
2171	0.4754
2162	0.4923
2153	0.5133
2144	0.5282
2135	0.543
2126	0.5572
2117	0.5693
2108	0.5806
2099	0.591
2090	0.6015
2081	0.6107
2072	0.6195
2063	0.6265
2054	0.6323
2045	0.6386
2036	0.6457
2027	0.6525
2018	0.6592
2009	0.6619
2000	0.6633
1991	0.6624
1982	0.6761
1973	0.6775
1964	0.6795
1955	0.681
1946	0.6817
1937	0.6832
1928	0.6862
1919	0.6891
1910	0.6921
1901	0.6935
1892	0.6933
1883	0.6893
1874	0.6822
1865	0.6769
1856	0.6703
1847	0.6648
1838	0.6601
1829	0.6525
1820	0.6468
1811	0.6431
1802	0.644
1793	0.646
1784	0.6475
1775	0.6487
1766	0.6483
1757	0.6422
1748	0.637
1739	0.6322
1730	0.628
1721	0.6237
1712	0.6195
1703	0.616
1694	0.6128
1685	0.6091
1676	0.6067
1667	0.6046
1658	0.6003
1649	0.5946
1640	0.5898
1631	0.5874
1622	0.5871
1613	0.5884
1604	0.5938
1595	0.6043
1586	0.6162
1577	0.6281
1568	0.6425
1559	0.6553
1550	0.6681
1541	0.6808
1532	0.6936
1523	0.7064
1514	0.7248
1505	0.7464
1496	0.7682
1487	0.784
1478	0.7908
1469	0.6783
1460	0.7204
1451	0.7971
1442	0.8386
1433	0.8546
1424	0.869
1415	0.8781
1406	0.7167
1397	0.8809
1388	0.8913
1379	0.8759
1370	0.9148
1361	0.9268
1352	0.9114
1343	0.8625
1334	0.8518
1325	0.8557
1316	0.8578
1307	0.8525
1298	0.8445
1289	0.8324
1280	0.8111
1271	0.763
1262	0.6925
1253	0.7399
1244	0.7268
1235	0.6201
1226	0.6732
1217	0.7108
1208	0.6942
1199	0.6536
1190	0.6546
1181	0.7222
1172	0.7764
1163	0.7974
1154	0.8135
1145	0.8275
1136	0.8396
1127	0.8506
1118	0.8605
1109	0.8701
1100	0.882
1091	0.8947
1082	0.9032
1073	0.9071
1064	0.9121
1055	0.9166
1046	0.9108
1037	0.8005
1028	0.8958
1019	0.8997
1010	0.7846
1001	0.8925
992	0.8904
983	0.8654
974	0.8307
965	0.7744
956	0.7117
947	0.6367
938	0.557
929	0.481
920	0.4305
911	0.3894
902	0.3772
893	0.3816
884	0.389
875	0.3939
866	0.3868
857	0.358
848	0.3168
839	0.363
830	0.4729
821	0.5303
812	0.5599
803	0.534
794	0.3653
785	0.2773
776	0.1415
767	0.0461
758	0.5655
749	0.6491
740	0.668
731	0.5218
722	0.7403
713	0.7782
704	0.8175
695	0.8292
686	0.8253
677	0.7899
668	0.7419
659	0.7718
650	0.7818
641	0.771
632	0.7328
623	0.6668
614	0.5827
605	0.3595
596	0.3878
587	0.3782
578	0.459
569	0.6026
560	0.7192
551	0.7836
542	0.8228
533	0.8435
524	0.8539
515	0.8593
506	0.8641
497	0.8687
488	0.8715
479	0.8685
470	0.8589
461	0.847
452	0.8339
