Infrared Spectrum: Propanoic acid, 2-hydroxy-
Formula: C 3 H 6 O 3
CAS: 50-21-5
State: gas
Origin: Sadtler Research Labs Under US-EPA Contract
1/CM	ABSORBANCE
450	0.0536295
462	0.0383608
474	0.0609483
486	0.0752075
498	0.0914856
510	0.103473
522	0.131613
534	0.179564
546	0.229408
558	0.275719
570	0.251743
582	0.229534
594	0.201647
606	0.181205
618	0.162655
630	0.138049
642	0.105366
654	0.0707909
666	0.0439131
678	0.0397489
690	0.0372252
702	0.0378561
714	0.0470678
726	0.0745765
738	0.105871
750	0.0932522
762	0.0632197
774	0.0502224
786	0.0576675
798	0.0712957
810	0.0639768
822	0.0381085
834	0.0127449
846	0.00694028
858	0.00832834
870	0.0112306
882	0.010095
894	0.0157734
906	0.0281397
918	0.0367204
930	0.0402537
942	0.0360895
954	0.0181709
966	0.0179186
978	0.0230922
990	0.0319253
1002	0.0527462
1014	0.108142
1026	0.198618
1038	0.248967
1050	0.25881
1062	0.217673
1074	0.274331
1086	0.48582
1098	0.86476
1110	1.19928
1122	1.25178
1134	1.00016
1146	0.522793
1158	0.369728
1170	0.299189
1182	0.244803
1194	0.236096
1206	0.238115
1218	0.194707
1230	0.168838
1242	0.194707
1254	0.231301
1266	0.264614
1278	0.248462
1290	0.236979
1302	0.22537
1314	0.233572
1326	0.230291
1338	0.224865
1350	0.196095
1362	0.202404
1374	0.20518
1386	0.200385
1398	0.14827
1410	0.0908546
1422	0.0705385
1434	0.0579198
1446	0.0747027
1458	0.0959021
1470	0.066122
1482	0.042525
1494	0.0186757
1506	0.0181709
1518	0.0179186
1530	0.00933784
1542	0.000252374
1554	0.0068141
1566	0.00618316
1578	0.0039118
1590	0.0109783
1602	0.0132496
1614	0.0132496
1626	0.0131234
1638	0.00794978
1650	0.00719266
1662	0.0127449
1674	0.00959021
1686	0.0157734
1698	0.0253636
1710	0.0498439
1722	0.0879523
1734	0.131739
1746	0.280388
1758	0.648349
1770	1.01202
1782	1.24673
1794	1.03524
1806	0.556232
1818	0.26045
1830	0.122149
1842	0.060065
1854	0.0358371
1866	0.0199375
1878	0.0142591
1890	0.0138806
1902	0.00921165
1914	0.00807597
1926	0.00959021
1938	0.00845453
1950	0.00706647
1962	0.00883309
1974	0.00656172
1986	0.00794978
1998	0.00694028
2010	0.00832834
2022	0.00908546
2034	0.00832834
2046	0.00820215
2058	0.00832834
2070	0.00832834
2082	0.00794978
2094	0.00820215
2106	0.00706647
2118	0.00769741
2130	0.00706647
2142	0.00694028
2154	0.00694028
2166	0.00706647
2178	0.0068141
2190	0.00719266
2202	0.00656172
2214	0.00744503
2226	0.00807597
2238	0.00845453
2250	0.00908546
2262	0.00996877
2274	0.0102211
2286	0.0102211
2298	0.00984259
2310	0.00959021
2322	0.00908546
2334	0.00769741
2346	0.00832834
2358	0.00807597
2370	0.00959021
2382	0.00946402
2394	0.00908546
2406	0.00883309
2418	0.00908546
2430	0.00895928
2442	0.0087069
2454	0.0087069
2466	0.00908546
2478	0.00895928
2490	0.00933784
2502	0.00908546
2514	0.0087069
2526	0.0087069
2538	0.00845453
2550	0.00782359
2562	0.00807597
2574	0.00807597
2586	0.00794978
2598	0.00782359
2610	0.00769741
2622	0.00744503
2634	0.00744503
2646	0.0068141
2658	0.00706647
2670	0.00694028
2682	0.00719266
2694	0.00731885
2706	0.00769741
2718	0.00769741
2730	0.00832834
2742	0.00845453
2754	0.00858072
2766	0.00959021
2778	0.0109783
2790	0.012114
2802	0.0132496
2814	0.015521
2826	0.0191804
2838	0.0248588
2850	0.0295278
2862	0.0344491
2874	0.0436607
2886	0.058677
2898	0.0745765
2910	0.0831572
2922	0.0779836
2934	0.0789931
2946	0.0853024
2958	0.0779836
2970	0.0728099
2982	0.108016
2994	0.190038
3006	0.165305
3018	0.0824001
3030	0.0248588
3042	0.015521
3054	0.0116092
3066	0.0107259
3078	0.00996877
3090	0.00883309
3102	0.00959021
3114	0.00908546
3126	0.00908546
3138	0.00858072
3150	0.00820215
3162	0.00845453
3174	0.00820215
3186	0.00921165
3198	0.00933784
3210	0.010095
3222	0.00946402
3234	0.00946402
3246	0.00782359
3258	0.00807597
3270	0.00719266
3282	0.00832834
3294	0.00883309
3306	0.00807597
3318	0.00807597
3330	0.00883309
3342	0.0087069
3354	0.00807597
3366	0.0087069
3378	0.00731885
3390	0.00807597
3402	0.00858072
3414	0.00782359
3426	0.00820215
3438	0.0087069
3450	0.0087069
3462	0.0111045
3474	0.0162781
3486	0.0340705
3498	0.0447964
3510	0.0531247
3522	0.0483296
3534	0.0372252
3546	0.0503486
3558	0.143348
3570	0.428026
3582	0.545254
3594	0.396858
3606	0.131992
3618	0.072179
3630	0.0564056
3642	0.0504748
3654	0.0484558
3666	0.0372252
3678	0.024985
3690	0.00921165
3702	0.0111045
3714	0.0127449
3726	0.0160257
3738	0.0138806
3750	0.00277611
3762	0.00656172
3774	0.00315467
3786	0.00277611
3798	0.00454273
3810	0.00214518
3822	0.00984259
3834	0.00555223
3846	0.00858072
3858	0.00858072
3870	0.0087069
3882	0.0141329
3894	0.00845453
3906	0.0151424
3918	0.0107259
3930	0.00542604
3942	0.00542604
3954	0.00328086
3966	0.00656172
