Infrared Spectrum: 2-Butyne
Formula: C 4 H 6
CAS: 503-17-3
State: gas
Instrument: HP-GC/MS/IRD
Origin: NIST Mass Spectrometry Data Center
1/CM	ABSORBANCE
550	0.001659
562	0.001875
574	0.002334
586	0.001614
598	0.000906
610	0.000384
622	0.000201
634	4.5e-05
646	0.000144
658	0.000249
670	0.000198
682	0.000216
694	0.000213
706	6.3e-05
718	5.1e-05
730	9e-05
742	3e-05
754	9.9e-05
766	0.000201
778	0.000189
790	0.000159
802	0.000216
814	0.00024
826	0.000234
838	0.000264
850	0.000237
862	0.000315
874	0.000399
886	0.000363
898	0.000213
910	0.000159
922	6.9e-05
934	5.4e-05
946	0.000192
958	0.00018
970	0.000216
982	0.000228
994	0.000225
1006	0.000264
1018	0.000384
1030	0.000423
1042	0.00045
1054	0.000417
1066	0.000378
1078	0.000297
1090	0.000291
1102	0.000195
1114	0.000159
1126	0.000207
1138	0.000228
1150	0.000189
1162	0.000384
1174	0.00039
1186	0.000459
1198	0.000561
1210	0.000666
1222	0.000636
1234	0.000672
1246	0.00069
1258	0.000678
1270	0.000672
1282	0.000861
1294	0.001149
1306	0.001062
1318	0.001326
1330	0.001713
1342	0.001983
1354	0.002892
1366	0.00453
1378	0.00483
1390	0.004326
1402	0.003654
1414	0.003897
1426	0.00513
1438	0.00468
1450	0.004608
1462	0.00489
1474	0.004281
1486	0.004116
1498	0.004401
1510	0.003735
1522	0.003297
1534	0.003204
1546	0.002499
1558	0.001887
1570	0.001677
1582	0.001386
1594	0.001248
1606	0.00105
1618	0.000879
1630	0.000666
1642	0.000468
1654	0.000387
1666	0.000282
1678	0.000273
1690	0.000231
1702	0.00018
1714	0.000165
1726	9.9e-05
1738	9.9e-05
1750	0.000108
1762	9.9e-05
1774	9.3e-05
1786	9.3e-05
1798	9.9e-05
1810	0.000126
1822	0.000159
1834	0.000138
1846	9.9e-05
1858	8.1e-05
1870	3.3e-05
1882	3.9e-05
1894	4.8e-05
1906	8.1e-05
1918	9.3e-05
1930	6.6e-05
1942	6.9e-05
1954	7.2e-05
1966	7.2e-05
1978	3.9e-05
1990	2.7e-05
2002	6.3e-05
2014	9e-05
2026	0.000219
2038	0.000417
2050	0.000621
2062	0.000585
2074	0.000468
2086	0.000171
2098	0.000102
2110	6.3e-05
2122	7.2e-05
2134	3.9e-05
2146	9.3e-05
2158	6.3e-05
2170	8.4e-05
2182	6.9e-05
2194	5.7e-05
2206	7.8e-05
2218	5.7e-05
2230	3.9e-05
2242	2.4e-05
2254	3e-06
2266	3.9e-05
2278	6.3e-05
2290	3.9e-05
2302	4.5e-05
2314	8.7e-05
2326	0.000126
2338	0.000129
2350	0.00012
2362	0.000219
2374	0.000276
2386	0.000318
2398	0.000396
2410	0.000435
2422	0.000483
2434	0.00048
2446	0.000417
2458	0.000453
2470	0.00051
2482	0.000561
2494	0.000525
2506	0.000576
2518	0.000567
2530	0.000504
2542	0.000486
2554	0.000381
2566	0.000309
2578	0.000303
2590	0.000282
2602	0.00027
2614	0.000237
2626	0.000222
2638	0.000231
2650	0.000213
2662	0.000285
2674	0.000327
2686	0.000417
2698	0.000456
2710	0.000519
2722	0.000954
2734	0.00153
2746	0.001896
2758	0.002172
2770	0.001377
2782	0.000963
2794	0.000978
2806	0.001146
2818	0.001458
2830	0.002223
2842	0.003855
2854	0.007464
2866	0.011223
2878	0.012663
2890	0.012297
2902	0.011199
2914	0.01836
2926	0.029745
2938	0.025455
2950	0.027621
2962	0.011739
2974	0.009318
2986	0.008112
2998	0.007611
3010	0.007377
3022	0.006213
3034	0.006705
3046	0.004662
3058	0.004002
3070	0.003048
3082	0.002157
3094	0.001644
3106	0.001209
3118	0.000924
3130	0.000816
3142	0.000636
3154	0.000525
3166	0.00051
3178	0.000528
3190	0.000432
3202	0.000387
3214	0.000414
3226	0.000339
3238	0.00033
3250	0.000318
3262	0.000312
3274	0.000288
3286	0.000282
3298	0.000291
3310	0.000318
3322	0.000351
3334	0.000375
3346	0.000372
3358	0.000321
3370	0.000321
3382	0.000246
3394	0.000276
3406	0.0003
3418	0.0003
3430	0.000276
3442	0.000288
3454	0.000291
3466	0.000357
3478	0.000354
3490	0.000282
3502	0.000195
3514	0.000126
3526	0.000111
3538	0.000135
3550	0.000126
3562	0.000168
3574	0.000165
3586	0.000195
3598	9.6e-05
3610	0.000129
3622	8.4e-05
3634	9.9e-05
3646	0.000111
3658	0.000147
3670	0.000138
3682	0.000144
3694	3e-05
3706	0.000138
3718	0.000105
3730	8.4e-05
3742	0.000147
3754	0.00018
3766	7.8e-05
3778	0.000108
3790	6.3e-05
3802	0.000114
3814	0.00018
3826	0.000201
3838	0.000192
