Infrared Spectrum: Beta-IODOPROPIONIC ACID
Formula: C3 H5 I O2
CAS: 141-76-4
State: SOLID (MINERAL OIL MULL)
Class: COBLENTZ
Instrument: Not specified, most likely a prism, grating, or hybrid spectrometer.
Sampling: TRANSMISSION
Resolution: 4
Origin: WYANDOTTE CHEMICALS CORP., WYANDOTTE, MICHIGAN, USA
MICROMETERS	TRANSMITTANCE
2.02	0.329
2.06086	0.339
2.10172	0.341
2.14258	0.344
2.18343	0.348
2.22429	0.353
2.26515	0.365
2.30601	0.371
2.34687	0.382
2.38773	0.39
2.42858	0.402
2.46944	0.409
2.5103	0.415
2.55116	0.426
2.59202	0.443
2.63288	0.449
2.67374	0.461
2.71459	0.483
2.75545	0.504
2.79631	0.511
2.83717	0.522
2.87803	0.528
2.91889	0.533
2.95975	0.533
3.0006	0.533
3.04146	0.514
3.08232	0.456
3.12318	0.387
3.16404	0.325
3.2049	0.276
3.24575	0.249
3.28661	0.202
3.32747	0.122
3.36833	0.022
3.40919	0.018
3.45005	0.032
3.49091	0.032
3.53176	0.168
3.57262	0.376
3.61348	0.395
3.65434	0.392
3.6952	0.404
3.73606	0.429
3.77691	0.393
3.81777	0.419
3.85863	0.444
3.89949	0.451
3.94035	0.436
3.98121	0.463
4.02207	0.514
4.06292	0.524
4.10378	0.517
4.14464	0.533
4.1855	0.56
4.22636	0.575
4.26722	0.57
4.30807	0.585
4.34893	0.606
4.38979	0.636
4.43065	0.655
4.47151	0.653
4.51237	0.662
4.55323	0.67
4.59408	0.684
4.63494	0.694
4.6758	0.702
4.71666	0.709
4.75752	0.723
4.79838	0.743
4.83924	0.767
4.88009	0.762
4.92095	0.774
4.96181	0.777
5.00267	0.784
5.04353	0.803
5.08439	0.814
5.12524	0.813
5.1661	0.826
5.20696	0.837
5.24782	0.85
5.28868	0.867
5.32954	0.876
5.3704	0.881
5.41125	0.901
5.45211	0.908
5.49297	0.921
5.53383	0.937
5.57469	0.928
5.61555	0.921
5.6564	0.899
5.69726	0.782
5.73812	0.522
5.77898	0.234
5.81984	0.147
5.8607	0.13
5.90156	0.113
5.94241	0.129
5.98327	0.202
6.02413	0.298
6.06499	0.402
6.10585	0.46
6.14671	0.519
6.18756	0.565
6.22842	0.601
6.26928	0.629
6.31014	0.65
6.351	0.66
6.39186	0.675
6.43272	0.67
6.47357	0.689
6.51443	0.682
6.55529	0.701
6.59615	0.709
6.63701	0.718
6.67787	0.682
6.71873	0.597
6.75958	0.465
6.80044	0.208
6.8413	0.2
6.88216	0.234
6.92302	0.23
6.96388	0.325
7.00473	0.336
7.04559	0.38
7.08645	0.511
7.12731	0.436
7.16817	0.268
7.20903	0.336
7.24989	0.288
7.29074	0.473
7.3316	0.584
7.37246	0.643
7.41332	0.592
7.45418	0.492
7.49504	0.556
7.53589	0.706
7.57675	0.76
7.61761	0.769
7.65847	0.747
7.69933	0.667
7.74019	0.667
7.78105	0.655
7.8219	0.575
7.86276	0.466
7.90362	0.293
7.94448	0.241
7.98534	0.215
8.0262	0.108
8.06705	0.149
8.10791	0.208
8.14877	0.319
8.18963	0.405
8.23049	0.47
8.27135	0.526
8.31221	0.572
8.35306	0.606
8.39392	0.634
8.43478	0.65
8.47564	0.601
8.5165	0.492
8.55736	0.624
8.59822	0.668
8.63907	0.702
8.67993	0.74
8.72079	0.769
8.76165	0.757
8.80251	0.594
8.84337	0.353
8.88422	0.551
8.92508	0.653
8.96594	0.692
9.0068	0.738
9.04766	0.762
9.08852	0.77
9.12938	0.779
9.17023	0.786
9.21109	0.792
9.25195	0.801
9.29281	0.814
9.33367	0.818
9.37453	0.816
9.41538	0.818
9.45624	0.821
9.4971	0.821
9.53796	0.823
9.57882	0.818
9.61968	0.797
9.66054	0.779
9.70139	0.808
9.74225	0.823
9.78311	0.85
9.82397	0.852
9.86483	0.869
9.90569	0.872
9.94655	0.882
9.9874	0.886
10.0283	0.893
10.0691	0.893
10.11	0.894
10.1508	0.889
10.1917	0.874
10.2326	0.862
10.2734	0.848
10.3143	0.828
10.3551	0.816
10.396	0.799
10.4368	0.772
10.4777	0.743
10.5186	0.687
10.5594	0.631
10.6003	0.558
10.6411	0.483
10.682	0.392
10.7229	0.292
10.7637	0.252
10.8046	0.332
10.8454	0.451
10.8863	0.534
10.9271	0.536
10.968	0.507
11.0089	0.461
11.0497	0.405
11.0906	0.317
11.1314	0.336
11.1723	0.405
11.2132	0.432
11.254	0.451
11.2949	0.466
11.3357	0.485
11.3766	0.507
11.4175	0.528
11.4583	0.551
11.4992	0.572
11.54	0.582
11.5809	0.601
11.6217	0.619
11.6626	0.631
11.7035	0.65
11.7443	0.662
11.7852	0.68
11.826	0.694
11.8669	0.709
11.9078	0.724
11.9486	0.733
11.9895	0.741
12.0303	0.76
12.0712	0.769
12.112	0.774
12.1529	0.779
12.1938	0.789
12.2346	0.799
12.2755	0.808
12.3163	0.806
12.3572	0.803
12.3981	0.787
12.4389	0.753
12.4798	0.684
12.5206	0.561
12.5615	0.463
12.6023	0.453
12.6432	0.555
12.6841	0.638
12.7249	0.684
12.7658	0.721
12.8066	0.741
12.8475	0.757
12.8884	0.769
12.9292	0.779
12.9701	0.789
13.0109	0.796
13.0518	0.804
13.0926	0.813
13.1335	0.814
13.1744	0.818
13.2152	0.82
13.2561	0.82
13.2969	0.821
13.3378	0.821
13.3787	0.82
13.4195	0.82
13.4604	0.813
13.5012	0.814
13.5421	0.806
13.5829	0.808
13.6238	0.808
13.6647	0.809
13.7055	0.809
13.7464	0.804
13.7872	0.799
13.8281	0.794
13.869	0.791
13.9098	0.792
13.9507	0.821
13.9915	0.842
14.0324	0.862
14.0733	0.876
14.1141	0.881
14.155	0.891
14.1958	0.898
14.2367	0.903
14.2775	0.903
14.3184	0.901
14.3593	0.906
14.4001	0.901
14.441	0.896
14.4818	0.896
14.5227	0.891
14.5636	0.882
14.6044	0.872
14.6453	0.867
14.6861	0.864
14.727	0.853
14.7678	0.843
14.8087	0.835
14.8496	0.83
14.8904	0.821
14.9313	0.814
14.9721	0.772
15.013	0.741
15.0539	0.699
15.0947	0.726
15.1356	0.765
15.1764	0.764
15.2173	0.757
15.2581	0.738
15.299	0.719
15.3399	0.702
15.3807	0.684
15.4216	0.67
15.4624	0.651
15.5033	0.636
15.5442	0.623
15.585	0.612
15.6259	0.597
15.6667	0.573
15.7076	0.553
15.7484	0.536
15.7893	0.526
15.8302	0.505
15.871	0.497
15.9119	0.49
15.9527	0.482
15.9936	0.477
