Infrared Spectrum: N-Methylacetamide
Formula: C 3 H 7 N O
CAS: 79-16-3
State: gas
Instrument: HP-GC/MS/IRD
Origin: NIST Mass Spectrometry Data Center
1/CM	ABSORBANCE
550	0.0001704
562	0.0001104
574	0.0001236
586	0.0001104
598	0.0001236
610	0.0003504
622	0.0004548
634	0.0003888
646	0.0003
658	0.0002112
670	0.000108
682	3e-05
694	2.28e-05
706	7.2e-06
718	3.12e-05
730	3.36e-05
742	0.0001116
754	0.00018
766	0.0002976
778	0.0004812
790	0.0006576
802	0.000756
814	0.0008496
826	0.0007764
838	0.0005952
850	0.0004044
862	0.000252
874	0.00018
886	0.0001704
898	0.0001644
910	0.0002148
922	0.0002328
934	0.0002748
946	0.0003264
958	0.000462
970	0.0004884
982	0.0004464
994	0.0003024
1006	0.0002052
1018	0.0002736
1030	0.0003204
1042	0.0003612
1054	0.0003444
1066	0.000336
1078	0.0004092
1090	0.00036
1102	0.0004248
1114	0.0003336
1126	0.0002808
1138	0.0001836
1150	0.000264
1162	0.0002904
1174	0.0003252
1186	0.000384
1198	0.000498
1210	0.0009864
1222	0.001962
1234	0.003534
1246	0.0044328
1258	0.004194
1270	0.0029208
1282	0.0010716
1294	0.0005772
1306	0.0006012
1318	0.0006192
1330	0.0006348
1342	0.0007548
1354	0.0013548
1366	0.0019272
1378	0.0021576
1390	0.0017532
1402	0.001548
1414	0.0016248
1426	0.0018048
1438	0.0021756
1450	0.0026604
1462	0.0039024
1474	0.0055836
1486	0.0064248
1498	0.0063756
1510	0.0051864
1522	0.0040368
1534	0.0033036
1546	0.0025704
1558	0.00177
1570	0.0010812
1582	0.0007584
1594	0.0005868
1606	0.0004572
1618	0.0004188
1630	0.0003804
1642	0.0004932
1654	0.00072
1666	0.0011448
1678	0.0020136
1690	0.0042708
1702	0.0089964
1714	0.011508
1726	0.0108852
1738	0.0100356
1750	0.0039588
1762	0.0013356
1774	0.0003828
1786	0.0001476
1798	0.0001116
1810	7.56e-05
1822	4.68e-05
1834	2.76e-05
1846	5.4e-05
1858	2.88e-05
1870	2.88e-05
1882	2.28e-05
1894	1.92e-05
1906	2.04e-05
1918	2.64e-05
1930	2.52e-05
1942	3e-05
1954	1.8e-05
1966	2.64e-05
1978	5.28e-05
1990	5.76e-05
2002	4.68e-05
2014	2.28e-05
2026	2.28e-05
2038	2.04e-05
2050	4.2e-05
2062	2.88e-05
2074	3.6e-05
2086	3.12e-05
2098	3.12e-05
2110	8.4e-06
2122	3.48e-05
2134	2.04e-05
2146	3.36e-05
2158	2.64e-05
2170	3.12e-05
2182	2.16e-05
2194	1.08e-05
2206	3.6e-06
2218	1.32e-05
2230	2.52e-05
2242	2.88e-05
2254	2.28e-05
2266	2.76e-05
2278	3.72e-05
2290	4.92e-05
2302	1.08e-05
2314	3.24e-05
2326	4.56e-05
2338	4.8e-05
2350	6.48e-05
2362	6.24e-05
2374	2.52e-05
2386	6e-06
2398	1.32e-05
2410	3e-05
2422	3e-05
2434	2.64e-05
2446	1.44e-05
2458	2.04e-05
2470	1.44e-05
2482	3.96e-05
2494	3.72e-05
2506	1.2e-05
2518	1.32e-05
2530	2.16e-05
2542	2.4e-05
2554	3e-05
2566	4.92e-05
2578	6.48e-05
2590	5.28e-05
2602	5.88e-05
2614	5.88e-05
2626	5.04e-05
2638	6.48e-05
2650	4.92e-05
2662	3.36e-05
2674	4.2e-05
2686	5.28e-05
2698	7.8e-05
2710	9.96e-05
2722	8.76e-05
2734	8.4e-05
2746	0.0001092
2758	0.0001032
2770	0.0001032
2782	0.00015
2794	0.0001908
2806	0.0002808
2818	0.0003564
2830	0.0004188
2842	0.0004104
2854	0.0004248
2866	0.0005484
2878	0.00075
2890	0.0010068
2902	0.001332
2914	0.0016368
2926	0.0020568
2938	0.00219
2950	0.0022596
2962	0.0019368
2974	0.00153
2986	0.00114
2998	0.0009144
3010	0.000756
3022	0.0007332
3034	0.0007272
3046	0.0006684
3058	0.0006192
3070	0.000438
3082	0.0003516
3094	0.0002892
3106	0.0002664
3118	0.000228
3130	0.0001236
3142	0.0001224
3154	0.0001068
3166	8.76e-05
3178	7.08e-05
3190	9.48e-05
3202	6e-05
3214	4.44e-05
3226	8.4e-05
3238	2.16e-05
3250	2.52e-05
3262	6.24e-05
3274	7.92e-05
3286	8.28e-05
3298	9.84e-05
3310	6.6e-05
3322	3.24e-05
3334	7.56e-05
3346	6.96e-05
3358	7.32e-05
3370	9.84e-05
3382	0.0001224
3394	0.0001488
3406	0.0002076
3418	0.0002928
3430	0.0003516
3442	0.000426
3454	0.0004632
3466	0.0006276
3478	0.0008436
3490	0.000846
3502	0.0007068
3514	0.0005004
3526	0.0002304
3538	0.000126
3550	5.52e-05
3562	5.28e-05
3574	8.52e-05
3586	9.12e-05
3598	3.48e-05
3610	6.48e-05
3622	8.4e-05
3634	2.04e-05
3646	6.96e-05
3658	8.4e-05
3670	0.0001416
3682	0.0001092
3694	5.64e-05
3706	9.36e-05
3718	6.6e-05
3730	8.88e-05
3742	0.0001392
3754	9.48e-05
3766	7.8e-05
3778	7.8e-05
3790	8.64e-05
3802	0.0001188
3814	4.44e-05
3826	5.4e-05
3838	0.00012
