Infrared Spectrum: Butane, 1,2-dibromo-
Formula: C 4 H 8 Br 2
CAS: 533-98-2
State: gas
Origin: Sadtler Research Labs Under US-EPA Contract
1/CM	ABSORBANCE
450	0
462	0.0624783
474	0.0569738
486	0.0638444
498	0.0597864
510	0.0714784
522	0.0744115
534	0.0970725
546	0.204993
558	0.283503
570	0.286195
582	0.261163
594	0.113104
606	0.101934
618	0.13697
630	0.132068
642	0.158185
654	0.162283
666	0.100608
678	0.115675
690	0.112742
702	0.129376
714	0.0920903
726	0.0913269
738	0.0701525
750	0.0585408
762	0.0584604
774	0.0582997
786	0.0751749
798	0.122948
810	0.119774
822	0.0758178
834	0.0733669
846	0.0744517
858	0.0762597
870	0.075416
882	0.097876
894	0.0939787
906	0.115032
918	0.0942198
930	0.0877108
942	0.0986796
954	0.0917287
966	0.0852197
978	0.0716392
990	0.0682239
1002	0.0731258
1014	0.0770633
1026	0.083492
1038	0.151394
1050	0.0986796
1062	0.0887956
1074	0.0893983
1086	0.0986796
1098	0.133676
1110	0.114068
1122	0.089559
1134	0.122666
1146	0.244288
1158	0.243766
1170	0.117041
1182	0.140707
1194	0.180806
1206	0.182614
1218	0.166662
1230	0.256141
1242	0.167506
1254	0.115916
1266	0.157703
1278	0.149707
1290	0.103139
1302	0.113305
1314	0.0949832
1326	0.0723624
1338	0.0703133
1350	0.0711972
1362	0.0721615
1374	0.107479
1386	0.204993
1398	0.120376
1410	0.0847777
1422	0.180042
1434	0.211784
1446	0.2021
1458	0.199127
1470	0.136649
1482	0.0808
1494	0.0617953
1506	0.0580185
1518	0.057456
1530	0.0563711
1542	0.0561702
1554	0.0568533
1566	0.0552059
1578	0.0550051
1590	0.0557283
1602	0.0557685
1614	0.0574961
1626	0.0572551
1638	0.0552863
1650	0.0556479
1662	0.0556881
1674	0.0558488
1686	0.0557283
1698	0.0555676
1710	0.0552059
1722	0.0560095
1734	0.0562506
1746	0.0568131
1758	0.0574961
1770	0.0561702
1782	0.0553667
1794	0.0558488
1806	0.0556077
1818	0.0555676
1830	0.0556077
1842	0.0551658
1854	0.0561301
1866	0.056572
1878	0.0562506
1890	0.0560497
1902	0.055889
1914	0.0556077
1926	0.0562104
1938	0.0564113
1950	0.0561301
1962	0.0569336
1974	0.0565319
1986	0.0561702
1998	0.056331
2010	0.0563711
2022	0.0553667
2034	0.054764
2046	0.0543622
2058	0.0548042
2070	0.054322
2082	0.0544425
2094	0.0571345
2106	0.0580587
2118	0.0580185
2130	0.0577774
2142	0.0578578
2154	0.057456
2166	0.0582596
2178	0.0583399
2190	0.0579381
2202	0.0582194
2214	0.0582194
2226	0.0585006
2238	0.0591435
2250	0.0589426
2262	0.0587015
2274	0.0584604
2286	0.057456
2298	0.0571345
2310	0.057014
2322	0.0576167
2334	0.0579381
2346	0.0591033
2358	0.057014
2370	0.0578176
2382	0.0580185
2394	0.0580185
2406	0.0582194
2418	0.0583399
2430	0.0578176
2442	0.0576167
2454	0.0585408
2466	0.0572149
2478	0.0566524
2490	0.0568131
2502	0.0558086
2514	0.0561301
2526	0.0564113
2538	0.0551256
2550	0.0555676
2562	0.0548443
2574	0.0545229
2586	0.0555274
2598	0.0566926
2610	0.0568935
2622	0.0576569
2634	0.0583399
2646	0.0589828
2658	0.0594649
2670	0.057014
2682	0.0549649
2694	0.0539604
2706	0.0538399
2718	0.0551256
2730	0.0557283
2742	0.0567729
2754	0.0582997
2766	0.0569738
2778	0.0553265
2790	0.0562506
2802	0.0575765
2814	0.0595051
2826	0.0645677
2838	0.0679025
2850	0.0744517
2862	0.0887554
2874	0.0940992
2886	0.124716
2898	0.129818
2910	0.107318
2922	0.124836
2934	0.185868
2946	0.213833
2958	0.187556
2970	0.234686
2982	0.390379
2994	0.309017
3006	0.144845
3018	0.0885545
3030	0.0688668
3042	0.0645677
3054	0.0604694
3066	0.0598667
3078	0.060148
3090	0.0579381
3102	0.0580988
3114	0.0577774
3126	0.0561702
3138	0.0580185
3150	0.0579381
3162	0.0563711
3174	0.057697
3186	0.0564917
3198	0.057014
3210	0.0574158
3222	0.0574158
3234	0.0568131
3246	0.0554068
3258	0.0565319
3270	0.0583801
3282	0.0580587
3294	0.0561301
3306	0.0548042
3318	0.0561301
3330	0.0548042
3342	0.0545229
3354	0.0558488
3366	0.0550854
3378	0.0555274
3390	0.0553667
3402	0.0548042
3414	0.0560095
3426	0.0562908
3438	0.0549247
3450	0.056331
3462	0.0550452
3474	0.0561301
3486	0.0558488
3498	0.0553265
3510	0.0540408
3522	0.0560095
3534	0.0551658
3546	0.0556077
3558	0.0557283
3570	0.0557283
3582	0.0568533
3594	0.0559292
3606	0.0548443
3618	0.0566122
3630	0.0565319
3642	0.0570944
3654	0.0553265
3666	0.0569738
3678	0.0554068
3690	0.0573354
3702	0.0572149
3714	0.0558086
3726	0.0573756
3738	0.0573354
3750	0.0556881
3762	0.0560095
3774	0.0564113
3786	0.0580185
3798	0.0564917
3810	0.0568935
3822	0.0562506
3834	0.0578176
3846	0.0565319
3858	0.0564515
3870	0.0553667
3882	0.0573756
3894	0.0570542
3906	0.0581792
3918	0.058581
3930	0.0604694
3942	0.0571345
3954	0.0579381
3966	0.0562908
