Infrared Spectrum: 1,2-DIBROMOBUTANE
Formula: C4 H8 Br2
CAS: 533-98-2
State: LIQUID
Boiling point: 165-166 C
Class: COBLENTZ
Instrument: Not specified, most likely a prism, grating, or hybrid spectrometer.
Sampling: TRANSMISSION
Path length: 0.003 CM
Resolution: 4
Origin: WYANDOTTE CHEMICALS CORP., WYANDOTTE, MICHIGAN, USA
MICROMETERS	TRANSMITTANCE
2.053	0.971
2.09281	0.966
2.13262	0.938
2.17243	0.936
2.21225	0.938
2.25206	0.941
2.29187	0.946
2.33168	0.951
2.37149	0.953
2.4113	0.955
2.45111	0.958
2.49093	0.968
2.53074	0.975
2.57055	0.978
2.61036	0.975
2.65017	0.971
2.68998	0.97
2.72979	0.97
2.76961	0.966
2.80942	0.963
2.84923	0.955
2.88904	0.95
2.92885	0.95
2.96866	0.948
3.00847	0.945
3.04829	0.943
3.0881	0.938
3.12791	0.933
3.16772	0.933
3.20753	0.918
3.24734	0.873
3.28715	0.501
3.32697	0.388
3.36678	0.495
3.40659	0.636
3.4464	0.774
3.48621	0.857
3.52602	0.933
3.56583	0.948
3.60565	0.943
3.64546	0.948
3.68527	0.963
3.72508	0.97
3.76489	0.971
3.8047	0.976
3.84451	0.976
3.88432	0.973
3.92414	0.975
3.96395	0.975
4.00376	0.971
4.04357	0.971
4.08338	0.968
4.12319	0.968
4.163	0.97
4.20282	0.973
4.24263	0.986
4.28244	0.978
4.32225	0.973
4.36206	0.98
4.40187	0.983
4.44168	0.981
4.4815	0.976
4.52131	0.975
4.56112	0.985
4.60093	0.988
4.64074	0.988
4.68055	0.99
4.72036	0.99
4.76018	0.99
4.79999	0.988
4.8398	0.99
4.87961	0.988
4.91942	0.988
4.95923	0.986
4.99904	0.983
5.03886	0.978
5.07867	0.981
5.11848	0.985
5.15829	0.985
5.1981	0.985
5.23791	0.985
5.27772	0.983
5.31754	0.981
5.35735	0.978
5.39716	0.98
5.43697	0.98
5.47678	0.981
5.51659	0.981
5.5564	0.978
5.59622	0.98
5.63603	0.98
5.67584	0.971
5.71565	0.963
5.75546	0.943
5.79527	0.95
5.83508	0.955
5.8749	0.95
5.91471	0.943
5.95452	0.936
5.99433	0.935
6.03414	0.923
6.07395	0.92
6.11376	0.913
6.15358	0.9
6.19339	0.89
6.2332	0.911
6.27301	0.915
6.31282	0.9
6.35263	0.873
6.39244	0.893
6.43226	0.91
6.47207	0.926
6.51188	0.93
6.55169	0.923
6.5915	0.915
6.63131	0.901
6.67112	0.873
6.71094	0.825
6.75075	0.599
6.79056	0.317
6.83037	0.445
6.87018	0.451
6.90999	0.33
6.9498	0.514
6.98962	0.647
7.02943	0.775
7.06924	0.833
7.10905	0.838
7.14886	0.792
7.18867	0.498
7.22848	0.719
7.2683	0.827
7.30811	0.832
7.34792	0.808
7.38773	0.867
7.42754	0.875
7.46735	0.867
7.50716	0.862
7.54697	0.83
7.58679	0.799
7.6266	0.617
7.66641	0.684
7.70622	0.709
7.74603	0.722
7.78584	0.651
7.82565	0.578
7.86547	0.686
7.90528	0.808
7.94509	0.832
7.9849	0.795
8.02471	0.599
8.06452	0.423
8.10433	0.372
8.14415	0.514
8.18396	0.609
8.22377	0.631
8.26358	0.606
8.30339	0.508
8.3432	0.528
8.38301	0.617
8.42283	0.583
8.46264	0.75
8.50245	0.764
8.54226	0.7
8.58207	0.48
8.62188	0.269
8.66169	0.229
8.70151	0.473
8.74132	0.689
8.78113	0.757
8.82094	0.78
8.86075	0.704
8.90056	0.75
8.94037	0.815
8.98019	0.818
9.02	0.823
9.05981	0.807
9.09962	0.843
9.13943	0.853
9.17924	0.858
9.21905	0.858
9.25887	0.837
9.29868	0.797
9.33849	0.724
9.3783	0.681
9.41811	0.79
9.45792	0.832
9.49773	0.84
9.53755	0.802
9.57736	0.769
9.61717	0.787
9.65698	0.835
9.69679	0.863
9.7366	0.867
9.77641	0.863
9.81623	0.872
9.85604	0.878
9.89585	0.855
9.93566	0.865
9.97547	0.862
10.0153	0.86
10.0551	0.87
10.0949	0.87
10.1347	0.853
10.1745	0.827
10.2143	0.828
10.2542	0.858
10.294	0.872
10.3338	0.883
10.3736	0.883
10.4134	0.882
10.4532	0.903
10.493	0.905
10.5328	0.895
10.5726	0.89
10.6125	0.897
10.6523	0.887
10.6921	0.87
10.7319	0.848
10.7717	0.807
10.8115	0.667
10.8513	0.549
10.8911	0.634
10.9309	0.72
10.9708	0.7
11.0106	0.604
11.0504	0.637
11.0902	0.694
11.13	0.759
11.1698	0.813
11.2096	0.84
11.2494	0.852
11.2892	0.84
11.3291	0.797
11.3689	0.779
11.4087	0.797
11.4485	0.805
11.4883	0.83
11.5281	0.87
11.5679	0.893
11.6077	0.905
11.6476	0.911
11.6874	0.911
11.7272	0.91
11.767	0.915
11.8068	0.913
11.8466	0.901
11.8864	0.897
11.9262	0.885
11.966	0.888
12.0059	0.895
12.0457	0.9
12.0855	0.897
12.1253	0.893
12.1651	0.888
12.2049	0.878
12.2447	0.858
12.2845	0.83
12.3243	0.785
12.3642	0.715
12.404	0.621
12.4438	0.516
12.4836	0.426
12.5234	0.44
12.5632	0.519
12.603	0.529
12.6428	0.514
12.6826	0.574
12.7225	0.676
12.7623	0.745
12.8021	0.792
12.8419	0.84
12.8817	0.862
12.9215	0.878
12.9613	0.885
13.0011	0.887
13.0409	0.885
13.0808	0.883
13.1206	0.885
13.1604	0.888
13.2002	0.892
13.24	0.895
13.2798	0.895
13.3196	0.898
13.3594	0.903
13.3993	0.906
13.4391	0.911
13.4789	0.915
13.5187	0.918
13.5585	0.921
13.5983	0.925
13.6381	0.928
13.6779	0.926
13.7177	0.923
13.7576	0.921
13.7974	0.923
13.8372	0.921
13.877	0.916
13.9168	0.913
13.9566	0.911
13.9964	0.911
14.0362	0.908
14.076	0.908
14.1159	0.906
14.1557	0.906
14.1955	0.905
14.2353	0.906
14.2751	0.906
14.3149	0.905
14.3547	0.9
14.3945	0.897
14.4343	0.893
14.4742	0.887
14.514	0.88
14.5538	0.875
14.5936	0.867
14.6334	0.86
14.6732	0.852
14.713	0.842
14.7528	0.838
14.7927	0.838
14.8325	0.837
14.8723	0.832
14.9121	0.823
14.9519	0.813
14.9917	0.794
15.0315	0.769
15.0713	0.752
15.1111	0.742
15.151	0.734
15.1908	0.732
15.2306	0.737
15.2704	0.747
15.3102	0.745
15.35	0.742
15.3898	0.739
15.4296	0.725
15.4694	0.707
15.5093	0.687
15.5491	0.679
15.5889	0.679
15.6287	0.699
15.6685	0.727
15.7083	0.75
15.7481	0.772
15.7879	0.785
15.8277	0.79
15.8676	0.792
15.9074	0.797
15.9472	0.8
15.987	0.797
