Infrared Spectrum: BUTANE, 1,2-DIBROMO-
Formula: C4 H8 Br2
CAS: 533-98-2
State: SOLUTION (10% IN CCl4 FOR 3800-1330, AND 10% IN CS2 FOR 1330-430 CM^-^1)
Boiling point: 155-157 C
Class: COBLENTZ III
Instrument: DOW KBr FOREPRISM-GRATING
Instrument parameters: BLAZED AT 3.5, 12.0, 20.0 MICRON, CHANGED AT 5.0, 7.5, 14.9 MICRON
Sampling: TRANSMISSION
Path length: 0.011, 0.011 CM
Resolution: 4
Origin: DOW CHEMICAL COMPANY
1/CM	TRANSMITTANCE
382.541	0.983
391.242	0.976
399.942	0.97
408.643	0.964
417.344	0.961
426.045	0.96
434.745	0.957
443.446	0.959
452.147	0.961
460.847	0.97
469.548	0.978
478.249	0.993
486.95	1.002
495.65	0.989
504.351	0.955
513.052	0.964
521.752	1.027
530.453	1.013
539.154	0.982
547.855	0.972
556.555	0.876
565.256	0.532
573.957	0.421
582.657	0.811
591.358	1.004
600.059	1.024
608.759	1.033
617.46	1.033
626.161	1.021
634.862	0.982
643.562	0.71
652.263	0.884
660.964	0.936
669.664	0.961
678.365	1.008
687.066	1.013
695.767	1.024
704.467	1.021
713.168	1.023
721.869	1.025
730.569	1.028
739.27	1.027
747.971	1.028
756.672	1.027
765.372	1.023
774.073	1.009
782.774	0.959
791.474	0.836
800.175	0.7689
808.876	0.838
817.577	0.991
826.277	1.008
834.978	1
843.679	0.956
852.379	0.865
861.08	0.857
869.781	0.866
878.482	0.902
887.182	0.957
895.883	0.963
904.584	0.87
913.284	0.937
921.985	0.7741
930.686	1.002
939.387	1.021
948.087	0.991
956.788	1.023
965.489	1.019
974.189	1.017
982.89	1.013
991.591	1.016
1000.29	1.012
1008.99	1.012
1017.69	1.005
1026.39	1
1035.09	0.971
1043.8	0.966
1052.5	0.982
1061.2	0.895
1069.9	0.974
1078.6	0.998
1087.3	1
1096	0.96
1104.7	0.982
1113.4	0.993
1122.1	0.913
1130.8	0.96
1139.5	0.8829
1148.2	0.4929
1156.9	0.7541
1165.61	0.955
1174.31	0.961
1183.01	0.792
1191.71	0.875
1200.41	0.846
1209.11	0.94
1217.81	0.868
1226.51	0.7259
1235.21	0.9101
1243.91	0.987
1252.61	0.987
1261.31	0.957
1270.01	0.911
1278.71	0.911
1287.41	0.933
1296.12	0.911
1304.82	0.914
1313.52	0.972
1322.22	0.978
1330.92	0.974
1339.62	0.979
1348.32	0.964
1357.02	0.956
1365.72	0.949
1374.42	0.938
1383.12	0.7519
1391.82	0.932
1400.52	0.964
1409.22	0.956
1417.93	0.922
1426.63	0.869
1435.33	0.495
1444.03	0.777
1452.73	0.7399
1461.43	0.582
1470.13	0.8111
1478.83	0.902
1487.53	0.894
1496.23	0.868
1504.93	0.817
1513.63	0.758
1522.33	0.711
1531.03	0.657
1539.74	0.544
1548.44	0.47
1557.14	0.504
1565.84	0.604
1574.54	0.669
1583.24	0.694
1591.94	0.741
1600.64	0.83
1609.34	0.9
1618.04	0.94
1626.74	0.955
1635.44	0.955
1644.14	0.949
1652.84	0.967
1661.55	0.97
1670.25	0.976
1678.95	0.98
1687.65	0.985
1696.35	0.991
1705.05	0.991
1713.75	0.99
1722.45	0.993
1731.15	0.99
1739.85	0.994
1748.55	0.99
1757.25	0.991
1765.95	0.99
1774.65	0.99
1783.36	0.989
1792.06	0.99
1800.76	0.989
1809.46	0.986
1818.16	0.986
1826.86	0.983
1835.56	0.986
1844.26	0.982
1852.96	0.982
1861.66	0.986
1870.36	0.985
1879.06	0.986
1887.76	0.989
1896.46	0.991
1905.17	0.99
1913.87	0.993
1922.57	0.991
1931.27	0.993
1939.97	0.991
1948.67	0.991
1957.37	0.991
1966.07	0.99
1974.77	0.991
1983.47	0.987
1992.17	0.987
2000.87	0.986
2009.57	0.987
2018.27	0.989
2026.98	0.994
2035.68	0.994
2044.38	0.997
2053.08	0.995
2061.78	0.997
2070.48	0.997
2079.18	0.997
2087.88	0.995
2096.58	0.993
2105.28	0.9916
2113.98	0.994
2122.68	0.9947
2131.38	0.994
2140.08	0.997
2148.79	0.994
2157.49	0.991
2166.19	0.991
2174.89	0.991
2183.59	0.991
2192.29	0.99
2200.99	0.991
2209.69	0.99
2218.39	0.989
2227.09	0.986
2235.79	0.9791
2244.49	0.976
2253.19	0.976
2261.89	0.976
2270.6	0.971
2279.3	0.967
2288	0.964
2296.7	0.96
2305.4	0.9641
2314.1	0.9681
2322.8	0.9721
2331.5	0.976
2340.2	0.9781
2348.9	0.9791
2357.6	0.98
2366.3	0.982
2375	0.9822
2383.7	0.9862
2392.41	0.987
2401.11	0.987
2409.81	0.989
2418.51	0.9885
2427.21	0.9892
2435.91	0.9907
2444.61	0.987
2453.31	0.987
2462.01	0.9903
2470.71	0.993
2479.41	0.993
2488.11	0.99
2496.81	0.99
2505.51	0.991
2514.22	0.989
2522.92	0.9918
2531.62	0.991
2540.32	0.991
2549.02	0.9921
2557.72	0.99
2566.42	0.991
2575.12	0.99
2583.82	0.99
2592.52	0.989
2601.22	0.989
2609.92	0.989
2618.62	0.991
2627.32	0.99
2636.03	0.989
2644.73	0.987
2653.43	0.987
2662.13	0.987
2670.83	0.989
2679.53	0.99
2688.23	0.987
2696.93	0.987
2705.63	0.985
2714.33	0.985
2723.03	0.987
2731.73	0.9788
2740.43	0.978
2749.13	0.9828
2757.84	0.983
2766.54	0.982
2775.24	0.986
2783.94	0.9821
2792.64	0.9802
2801.34	0.979
2810.04	0.974
2818.74	0.9631
2827.44	0.957
2836.14	0.9451
2844.84	0.9032
2853.54	0.8811
2862.24	0.926
2870.94	0.8935
2879.65	0.702
2888.35	0.8613
2897.05	0.879
2905.75	0.8549
2914.45	0.7637
2923.15	0.7167
2931.85	0.7358
2940.55	0.6179
2949.25	0.7632
2957.95	0.7551
2966.65	0.5614
2975.35	0.3469
2984.05	0.5419
2992.75	0.8195
3001.46	0.9021
3010.16	0.944
3018.86	0.9579
3027.56	0.966
3036.26	0.9703
3044.96	0.971
3053.66	0.975
3062.36	0.975
3071.06	0.975
3079.76	0.9784
3088.46	0.9812
3097.16	0.98
3105.86	0.982
3114.56	0.9795
3123.27	0.983
3131.97	0.9825
3140.67	0.9795
3149.37	0.979
3158.07	0.9795
3166.77	0.978
3175.47	0.976
3184.17	0.976
3192.87	0.976
3201.57	0.976
3210.27	0.976
3218.97	0.975
3227.67	0.974
3236.37	0.972
3245.08	0.971
3253.78	0.971
3262.48	0.971
3271.18	0.971
3279.88	0.971
3288.58	0.9702
3297.28	0.97
3305.98	0.967
3314.68	0.966
3323.38	0.9678
3332.08	0.9662
3340.78	0.963
3349.48	0.96
3358.18	0.957
3366.89	0.957
3375.59	0.9441
3384.29	0.942
3392.99	0.941
3401.69	0.94
3410.39	0.94
3419.09	0.94
3427.79	0.942
3436.49	0.9491
3445.19	0.956
3453.89	0.96
3462.59	0.967
3471.29	0.968
3479.99	0.9711
3488.69	0.972
3497.4	0.9751
3506.1	0.9791
3514.8	0.983
3523.5	0.983
3532.2	0.985
3540.9	0.986
3549.6	0.9862
3558.3	0.987
3567	0.9903
3575.7	0.99
3584.4	0.9903
3593.1	0.99
3601.8	0.9876
3610.5	0.9877
3619.21	0.99
3627.91	0.991
3636.61	0.99
3645.31	0.997
3654.01	0.9936
3662.71	0.994
3671.41	0.994
3680.11	0.993
3688.81	0.993
3697.51	0.995
3706.21	0.991
3714.91	0.99
3723.61	0.993
3732.31	0.9975
3741.02	1
3749.72	0.998
3758.42	0.9944
3767.12	0.9962
3775.82	0.995
3784.52	0.9917
3793.22	1.0027
