Infrared Spectrum: 2,2-Dimethylbutane
Formula: C 6 H 14
CAS: 75-83-2
State: gas
Instrument: HP-GC/MS/IRD
Origin: NIST Mass Spectrometry Data Center
1/CM	ABSORBANCE
550	0.0002162
562	0.0003008
574	0
586	0.0004512
598	0.0003854
610	0.0005076
622	0.0003666
634	0.000282
646	0.000564
658	0.0004888
670	0.0004888
682	0.000517
694	0.0005452
706	0.0005452
718	0.0006768
730	0.0007614
742	0.0009682
754	0.0008742
766	0.000752
778	0.0005828
790	0.0005922
802	0.0005546
814	0.000564
826	0.0005358
838	0.0005076
850	0.00047
862	0.000517
874	0.0006204
886	0.0005452
898	0.0006016
910	0.0009588
922	0.001363
934	0.00141
946	0.001269
958	0.0008084
970	0.0005358
982	0.000423
994	0.000376
1006	0.000423
1018	0.0005076
1030	0.0003572
1042	0.000376
1054	0.000376
1066	0.0003666
1078	0.0004136
1090	0.0004982
1102	0.00047
1114	0.0004136
1126	0.0003196
1138	0.0004512
1150	0.0004512
1162	0.000564
1174	0.000846
1186	0.0015886
1198	0.0028576
1210	0.0031678
1222	0.0022654
1234	0.0025286
1246	0.00282
1258	0.0020962
1270	0.0014006
1282	0.001034
1294	0.0008742
1306	0.000846
1318	0.0008742
1330	0.0010622
1342	0.0021902
1354	0.0055272
1366	0.0092684
1378	0.0081874
1390	0.0057998
1402	0.0039292
1414	0.002162
1426	0.0018706
1438	0.0027636
1450	0.0050478
1462	0.00846
1474	0.0099922
1486	0.0074448
1498	0.003572
1510	0.0015134
1522	0.0009306
1534	0.000705
1546	0.0005734
1558	0.0004606
1570	0.0004324
1582	0.0004418
1594	0.0004324
1606	0.000376
1618	0.0004042
1630	0.0003572
1642	0.0003572
1654	0.0003572
1666	0.0003666
1678	0.0003196
1690	0.0003572
1702	0.0003008
1714	0.000282
1726	0.0002444
1738	0.0002444
1750	0.0001974
1762	0.000188
1774	0.0001786
1786	0.0001786
1798	0.0001786
1810	0.0001786
1822	0.000188
1834	0.0001692
1846	0.0001598
1858	0.0001692
1870	0.0001598
1882	0.0001786
1894	0.0001692
1906	0.0001222
1918	0.0001316
1930	0.0001128
1942	0.0001504
1954	0.0001504
1966	0.0001128
1978	6.58e-05
1990	7.52e-05
2002	0.0001034
2014	9.4e-05
2026	0.0001034
2038	0.0001504
2050	0.0001034
2062	0.0001128
2074	8.46e-05
2086	8.46e-05
2098	0.0001222
2110	7.52e-05
2122	7.52e-05
2134	6.58e-05
2146	4.7e-05
2158	1.88e-05
2170	2.82e-05
2182	7.52e-05
2194	2.82e-05
2206	9.4e-06
2218	3.76e-05
2230	6.58e-05
2242	9.4e-05
2254	8.46e-05
2266	6.58e-05
2278	0.0001128
2290	0.000141
2302	0.0001128
2314	0.0001316
2326	0.0001128
2338	7.52e-05
2350	9.4e-05
2362	8.46e-05
2374	0.000141
2386	0.0002256
2398	0.0001974
2410	0.0002068
2422	0.0001692
2434	0.0001222
2446	0.0001128
2458	0.0001222
2470	0.0001692
2482	0.000141
2494	0.000188
2506	0.0001692
2518	0.000188
2530	0.0002256
2542	0.000282
2554	0.0003008
2566	0.0003478
2578	0.0003384
2590	0.0003384
2602	0.00047
2614	0.0004982
2626	0.000564
2638	0.0006392
2650	0.0007144
2662	0.000705
2674	0.0006956
2686	0.0008084
2698	0.000893
2710	0.0010904
2722	0.0013724
2734	0.001598
2746	0.0015698
2758	0.0015604
2770	0.001551
2782	0.0016732
2794	0.0020492
2806	0.0028106
2818	0.0038728
2830	0.0057998
2842	0.0090992
2854	0.0141094
2866	0.0220054
2878	0.0311234
2890	0.0349586
2902	0.0358516
2914	0.0355884
2926	0.038587
2938	0.0519068
2950	0.0757264
2962	0.094
2974	0.0690242
2986	0.0267712
2998	0.0095598
3010	0.0053486
3022	0.003948
3034	0.003149
3046	0.002491
3058	0.0021056
3070	0.0018612
3082	0.001739
3094	0.0016074
3106	0.0013818
3118	0.0013254
3130	0.0012502
3142	0.0012126
3154	0.0011938
3166	0.0011844
3178	0.001269
3190	0.0011938
3202	0.0011186
3214	0.0009964
3226	0.0008648
3238	0.0006674
3250	0.0005922
3262	0.00047
3274	0.000423
3286	0.0004888
3298	0.0004512
3310	0.0004324
3322	0.0003666
3334	0.0002538
3346	0.0002538
3358	0.0002726
3370	0.0003102
3382	0.0003102
3394	0.0003008
3406	0.0002726
3418	0.0001786
3430	0.0002068
3442	0.0002632
3454	0.000141
3466	0.0001692
3478	0.0001316
3490	0.0001034
3502	5.64e-05
3514	8.46e-05
3526	9.4e-05
3538	6.58e-05
3550	6.58e-05
3562	9.4e-06
3574	7.52e-05
3586	8.46e-05
3598	4.7e-05
3610	4.7e-05
3622	0.0001128
3634	6.58e-05
3646	0.0001316
3658	8.46e-05
3670	9.4e-05
3682	8.46e-05
3694	0.0001222
3706	8.46e-05
3718	8.46e-05
3730	0.0001316
3742	9.4e-05
3754	8.46e-05
3766	0.0001034
3778	0.0001316
3790	0.0001598
3802	0.0001974
3814	0.000235
3826	0.0001692
3838	0.0001692
