Infrared Spectrum: 1,4-PENTADIENE
Formula: C5 H8
CAS: 591-93-5
State: LIQUID (100 mmHg DILUTED TO A TOTAL PRESSURE OF 600 mmHg WITH NITROGEN)
Class: COBLENTZ
Instrument: DOW KBr FOREPRISM
Instrument parameters: GRATING BLAZED AT 3.5, 12.0, 20.0 MICRONS AND CHANGED AT 5.0, 7.5, 14.9 MICRONS
Sampling: TRANSMISSION
Path length: 5 CM
Resolution: 4
Origin: DOW CHEMICAL COMPANY
1/CM	TRANSMITTANCE
450.791	0.9
459.578	0.898
468.366	0.916
477.153	0.926
485.94	0.922
494.728	0.915
503.515	0.907
512.302	0.894
521.09	0.879
529.877	0.844
538.664	0.795
547.452	0.729
556.239	0.702
565.027	0.71
573.814	0.722
582.601	0.677
591.389	0.649
600.176	0.675
608.963	0.742
617.751	0.781
626.538	0.747
635.325	0.714
644.113	0.671
652.9	0.635
661.687	0.648
670.475	0.666
679.262	0.725
688.049	0.795
696.837	0.843
705.624	0.879
714.411	0.908
723.199	0.927
731.986	0.937
740.774	0.939
749.561	0.945
758.348	0.952
767.136	0.955
775.923	0.954
784.71	0.95
793.498	0.945
802.285	0.937
811.072	0.927
819.86	0.915
828.647	0.891
837.434	0.88
846.222	0.875
855.009	0.86
863.796	0.818
872.584	0.674
881.371	0.477
890.158	0.222
898.946	0.077
907.733	0.023
916.52	0.023
925.308	0.042
934.095	0.112
942.883	0.26
951.67	0.466
960.457	0.538
969.245	0.459
978.032	0.285
986.819	0.157
995.607	0.124
1004.39	0.191
1013.18	0.362
1021.97	0.595
1030.76	0.743
1039.54	0.745
1048.33	0.74
1057.12	0.738
1065.91	0.761
1074.69	0.786
1083.48	0.831
1092.27	0.875
1101.05	0.865
1109.84	0.821
1118.63	0.821
1127.42	0.829
1136.2	0.842
1144.99	0.85
1153.78	0.855
1162.57	0.9
1171.35	0.933
1180.14	0.934
1188.93	0.937
1197.72	0.933
1206.5	0.922
1215.29	0.898
1224.08	0.903
1232.87	0.914
1241.65	0.932
1250.44	0.927
1259.23	0.897
1268.01	0.782
1276.8	0.781
1285.59	0.75
1294.38	0.842
1303.16	0.861
1311.95	0.873
1320.74	0.893
1329.53	0.898
1338.31	0.893
1347.1	0.872
1355.89	0.797
1364.68	0.749
1373.46	0.749
1382.25	0.753
1391.04	0.746
1399.82	0.704
1408.61	0.588
1417.4	0.519
1426.19	0.418
1434.97	0.459
1443.76	0.511
1452.55	0.632
1461.34	0.763
1470.12	0.84
1478.91	0.885
1487.7	0.9
1496.49	0.907
1505.27	0.897
1514.06	0.904
1522.85	0.908
1531.63	0.916
1540.42	0.911
1549.21	0.907
1558	0.896
1566.78	0.885
1575.57	0.875
1584.36	0.871
1593.15	0.872
1601.93	0.847
1610.72	0.788
1619.51	0.67
1628.3	0.3239
1637.08	0.162
1645.87	0.145
1654.66	0.2741
1663.45	0.605
1672.23	0.837
1681.02	0.894
1689.81	0.915
1698.59	0.919
1707.38	0.934
1716.17	0.936
1724.96	0.936
1733.74	0.941
1742.53	0.943
1751.32	0.941
1760.11	0.936
1768.89	0.934
1777.68	0.933
1786.47	0.922
1795.26	0.916
1804.04	0.893
1812.83	0.832
1821.62	0.7
1830.4	0.606
1839.19	0.612
1847.98	0.716
1856.77	0.872
1865.55	0.912
1874.34	0.929
1883.13	0.934
1891.92	0.939
1900.7	0.932
1909.49	0.937
1918.28	0.943
1927.07	0.948
1935.85	0.95
1944.64	0.945
1953.43	0.934
1962.21	0.914
1971	0.894
1979.79	0.9
1988.58	0.915
1997.36	0.936
2006.15	0.95
2014.94	0.953
2023.73	0.956
2032.51	0.957
2041.3	0.956
2050.09	0.956
2058.88	0.957
2067.66	0.9575
2076.45	0.959
2085.24	0.959
2094.03	0.959
2102.81	0.958
2111.6	0.958
2120.39	0.957
2129.17	0.9575
2137.96	0.959
2146.75	0.959
2155.54	0.959
2164.32	0.958
2173.11	0.9537
2181.9	0.9475
2190.69	0.9489
2199.47	0.9514
2208.26	0.955
2217.05	0.961
2225.84	0.962
2234.62	0.962
2243.41	0.962
2252.2	0.962
2260.98	0.961
2269.77	0.959
2278.56	0.958
2287.35	0.957
2296.13	0.957
2304.92	0.957
2313.71	0.958
2322.5	0.961
2331.28	0.963
2340.07	0.966
2348.86	0.9694
2357.65	0.969
2366.43	0.9672
2375.22	0.9626
2384.01	0.961
2392.8	0.9614
2401.58	0.965
2410.37	0.966
2419.16	0.965
2427.94	0.963
2436.73	0.963
2445.52	0.968
2454.31	0.969
2463.09	0.969
2471.88	0.968
2480.67	0.9656
2489.46	0.9626
2498.24	0.961
2507.03	0.958
2515.82	0.959
2524.61	0.962
2533.39	0.963
2542.18	0.9643
2550.97	0.9643
2559.75	0.963
2568.54	0.966
2577.33	0.968
2586.12	0.965
2594.9	0.965
2603.69	0.966
2612.48	0.9673
2621.27	0.968
2630.05	0.9693
2638.84	0.9723
2647.63	0.975
2656.42	0.9743
2665.2	0.97
2673.99	0.969
2682.78	0.9657
2691.56	0.9563
2700.35	0.946
2709.14	0.9433
2717.93	0.945
2726.71	0.9486
2735.5	0.952
2744.29	0.955
2753.08	0.9573
2761.86	0.962
2770.65	0.963
2779.44	0.9611
2788.23	0.9534
2797.01	0.9358
2805.8	0.8954
2814.59	0.8166
2823.38	0.7257
2832.16	0.6564
2840.95	0.648
2849.74	0.6506
2858.52	0.6663
2867.31	0.6507
2876.1	0.571
2884.89	0.448
2893.67	0.3087
2902.46	0.2523
2911.25	0.2761
2920.04	0.3081
2928.82	0.3723
2937.61	0.4683
2946.4	0.5403
2955.19	0.5327
2963.97	0.457
2972.76	0.3487
2981.55	0.1818
2990.33	0.1472
2999.12	0.1547
3007.91	0.1875
3016.7	0.2355
3025.48	0.3512
3034.27	0.5703
3043.06	0.608
3051.85	0.5369
3060.63	0.4071
3069.42	0.245
3078.21	0.0775
3087	0.0777
3095.78	0.1116
3104.57	0.3069
3113.36	0.6371
3122.15	0.8246
3130.93	0.9027
3139.72	0.9254
3148.51	0.934
3157.29	0.9392
3166.08	0.9454
3174.87	0.9524
3183.66	0.957
3192.44	0.9622
3201.23	0.966
3210.02	0.968
3218.81	0.9682
3227.59	0.9682
3236.38	0.9704
3245.17	0.97
3253.96	0.968
3262.74	0.965
3271.53	0.963
3280.32	0.9652
3289.1	0.9682
3297.89	0.972
3306.68	0.972
3315.47	0.97
3324.25	0.969
3333.04	0.969
3341.83	0.969
3350.62	0.9717
3359.4	0.976
3368.19	0.975
3376.98	0.973
3385.77	0.973
3394.55	0.977
3403.34	0.9791
3412.13	0.98
3420.91	0.9787
3429.7	0.9759
3438.49	0.9717
3447.28	0.972
3456.06	0.972
3464.85	0.973
3473.64	0.973
3482.43	0.976
3491.21	0.976
3500	0.977
3508.79	0.9791
3517.58	0.977
3526.36	0.9801
3535.15	0.98
3543.94	0.979
3552.73	0.9772
3561.51	0.9831
3570.3	0.983
3579.09	0.9799
3587.87	0.979
3596.66	0.979
3605.45	0.9772
3614.24	0.979
3623.02	0.9799
3631.81	0.9772
3640.6	0.9769
3649.39	0.975
3658.17	0.9772
3666.96	0.977
3675.75	0.973
3684.54	0.9761
3693.32	0.98
3702.11	0.98
3710.9	0.9769
3719.68	0.976
3728.47	0.9791
3737.26	0.98
3746.05	0.98
3754.83	0.98
3763.62	0.98
3772.41	0.98
