Infrared Spectrum: 1,4-PENTADIENE
Formula: C5 H8
CAS: 591-93-5
State: SOLUTION (10% IN CCl4 FOR 3800-1340 CM^-^1, 10% IN CS2 FOR 1340-450 CM^-^1)
Class: COBLENTZ III
Instrument: DOW KBr FOREPRISM-GRATING
Instrument parameters: GRATING BLAZED AT 3.5, 12.0, 20.0 MICRONS AND CHANGED AT 5.0, 7.5, 14.9 MICRONS
Sampling: TRANSMISSION
Path length: 0.011 CM, 0.011 CM
Resolution: 4
Origin: DOW CHEMICAL COMPANY
1/CM	TRANSMITTANCE
451.84	0.966
460.626	0.976
469.413	0.98
478.199	0.98
486.986	0.977
495.772	0.98
504.558	0.983
513.345	0.984
522.131	0.977
530.917	0.958
539.704	0.92
548.49	0.834
557.277	0.701
566.063	0.776
574.849	0.86
583.636	0.852
592.422	0.741
601.208	0.734
609.995	0.871
618.781	0.904
627.568	0.891
636.354	0.848
645.14	0.787
653.927	0.703
662.713	0.628
671.5	0.764
680.286	0.87
689.072	0.914
697.859	0.94
706.645	0.958
715.431	0.971
724.218	0.984
733.004	0.997
741.791	1.005
750.577	1.009
759.363	1.012
768.15	1.012
776.936	1.008
785.722	1.001
794.509	0.998
803.295	0.99
812.082	0.983
820.868	0.977
829.654	0.965
838.441	0.931
847.227	0.845
856.013	0.753
864.8	0.736
873.586	0.673
882.373	0.517
891.159	0.395
899.945	0.096
908.732	0.002
917.518	0.002
926.305	0.162
935.091	0.477
943.877	0.617
952.664	0.661
961.45	0.696
970.236	0.663
979.023	0.407
987.809	0.089
996.596	0.055
1005.38	0.451
1014.17	0.709
1022.95	0.804
1031.74	0.83
1040.53	0.819
1049.31	0.797
1058.1	0.761
1066.89	0.803
1075.67	0.866
1084.46	0.911
1093.25	0.931
1102.03	0.921
1110.82	0.876
1119.6	0.84
1128.39	0.915
1137.18	0.924
1145.96	0.9
1154.75	0.953
1163.54	0.964
1172.32	0.969
1181.11	0.962
1189.9	0.982
1198.68	0.982
1207.47	0.976
1216.26	0.958
1225.04	0.943
1233.83	0.965
1242.61	0.962
1251.4	0.953
1260.19	0.932
1268.97	0.882
1277.76	0.793
1286.55	0.837
1295.33	0.804
1304.12	0.83
1312.91	0.851
1321.69	0.876
1330.48	0.891
1339.26	0.906
1348.05	0.903
1356.84	0.911
1365.62	0.91
1374.41	0.9
1383.2	0.893
1391.98	0.873
1400.77	0.822
1409.56	0.685
1418.34	0.404
1427.13	0.535
1435.91	0.274
1444.7	0.739
1453.49	0.838
1462.27	0.858
1471.06	0.856
1479.85	0.86
1488.63	0.841
1497.42	0.797
1506.21	0.714
1514.99	0.486
1523.78	0.238
1532.56	0.571
1541.35	0.517
1550.14	0.469
1558.92	0.53
1567.71	0.599
1576.5	0.63
1585.28	0.641
1594.07	0.706
1602.86	0.775
1611.64	0.763
1620.43	0.725
1629.21	0.466
1638	0.232
1646.79	0.214
1655.57	0.792
1664.36	0.852
1673.15	0.884
1681.93	0.898
1690.72	0.903
1699.51	0.92
1708.29	0.922
1717.08	0.931
1725.87	0.928
1734.65	0.926
1743.44	0.932
1752.22	0.932
1761.01	0.933
1769.8	0.932
1778.58	0.928
1787.37	0.921
1796.16	0.911
1804.94	0.893
1813.73	0.869
1822.52	0.803
1831.3	0.724
1840.09	0.725
1848.87	0.84
1857.66	0.891
1866.45	0.911
1875.23	0.92
1884.02	0.924
1892.81	0.924
1901.59	0.922
1910.38	0.926
1919.17	0.932
1927.95	0.936
1936.74	0.936
1945.52	0.935
1954.31	0.931
1963.1	0.921
1971.88	0.904
1980.67	0.898
1989.46	0.91
1998.24	0.925
2007.03	0.932
2015.82	0.932
2024.6	0.936
2033.39	0.936
2042.17	0.939
2050.96	0.938
2059.75	0.939
2068.53	0.94
2077.32	0.943
2086.11	0.947
2094.89	0.949
2103.68	0.949
2112.47	0.9488
2121.25	0.946
2130.04	0.946
2138.83	0.9461
2147.61	0.944
2156.4	0.943
2165.18	0.94
2173.97	0.9341
2182.76	0.9357
2191.54	0.9403
2200.33	0.9432
2209.12	0.944
2217.9	0.944
2226.69	0.943
2235.48	0.943
2244.26	0.943
2253.05	0.9398
2261.83	0.936
2270.62	0.933
2279.41	0.9275
2288.19	0.9235
2296.98	0.92
2305.77	0.922
2314.55	0.9283
2323.34	0.9369
2332.13	0.9463
2340.91	0.95
2349.7	0.949
2358.48	0.955
2367.27	0.955
2376.06	0.954
2384.84	0.9523
2393.63	0.951
2402.42	0.951
2411.2	0.951
2419.99	0.951
2428.78	0.951
2437.56	0.951
2446.35	0.951
2455.13	0.951
2463.92	0.951
2472.71	0.951
2481.49	0.951
2490.28	0.9505
2499.07	0.949
2507.85	0.947
2516.64	0.947
2525.43	0.947
2534.21	0.947
2543	0.947
2551.78	0.947
2560.57	0.947
2569.36	0.947
2578.14	0.9479
2586.93	0.947
2595.72	0.946
2604.5	0.9466
2613.29	0.9494
2622.08	0.949
2630.86	0.95
2639.65	0.953
2648.44	0.953
2657.22	0.953
2666.01	0.951
2674.79	0.95
2683.58	0.9447
2692.37	0.9394
2701.15	0.9353
2709.94	0.9373
2718.73	0.9383
2727.51	0.938
2736.3	0.938
2745.09	0.94
2753.87	0.94
2762.66	0.94
2771.44	0.9383
2780.23	0.933
2789.02	0.9258
2797.8	0.9118
2806.59	0.8817
2815.38	0.8186
2824.16	0.739
2832.95	0.7058
2841.74	0.76
2850.52	0.7379
2859.31	0.7548
2868.09	0.7638
2876.88	0.707
2885.67	0.5862
2894.45	0.4712
2903.24	0.4358
2912.03	0.4968
2920.81	0.5366
2929.6	0.6213
2938.39	0.6821
2947.17	0.7332
2955.96	0.7421
2964.74	0.6984
2973.53	0.5737
2982.32	0.2714
2991.1	0.3231
2999.89	0.516
3008.68	0.4066
3017.46	0.4585
3026.25	0.7026
3035.04	0.7569
3043.82	0.7451
3052.61	0.6901
3061.39	0.6013
3070.18	0.406
3078.97	0.3336
3087.75	0.187
3096.54	0.3202
3105.33	0.735
3114.11	0.848
3122.9	0.8824
3131.69	0.8981
3140.47	0.9131
3149.26	0.9212
3158.05	0.9281
3166.83	0.9321
3175.62	0.9362
3184.4	0.942
3193.19	0.944
3201.98	0.947
3210.76	0.949
3219.55	0.95
3228.34	0.953
3237.12	0.953
3245.91	0.953
3254.7	0.953
3263.48	0.953
3272.27	0.953
3281.05	0.953
3289.84	0.953
3298.63	0.953
3307.41	0.953
3316.2	0.953
3324.99	0.954
3333.77	0.9547
3342.56	0.955
3351.35	0.955
3360.13	0.957
3368.92	0.957
3377.7	0.957
3386.49	0.957
3395.28	0.957
3404.06	0.957
3412.85	0.957
3421.64	0.955
3430.42	0.9547
3439.21	0.954
3448	0.953
3456.78	0.953
3465.57	0.953
3474.35	0.953
3483.14	0.953
3491.93	0.953
3500.71	0.953
3509.5	0.953
3518.29	0.953
3527.07	0.953
3535.86	0.953
3544.65	0.953
3553.43	0.9545
3562.22	0.955
3571.01	0.9472
3579.79	0.9429
3588.58	0.954
3597.36	0.952
3606.15	0.953
3614.94	0.9535
3623.72	0.954
3632.51	0.955
3641.3	0.957
3650.08	0.953
3658.87	0.9546
3667.66	0.955
3676.44	0.953
3685.23	0.954
3694.01	0.954
3702.8	0.957
3711.59	0.958
3720.37	0.961
3729.16	0.962
3737.95	0.9627
3746.73	0.958
3755.52	0.9544
3764.31	0.953
3773.09	0.953
3781.88	0.954
3790.66	0.955
3799.45	0.9533
