Infrared Spectrum: 1,4-Pentadiene
Formula: C 5 H 8
CAS: 591-93-5
State: gas
Instrument: HP-GC/MS/IRD
Origin: NIST Mass Spectrometry Data Center
1/CM	ABSORBANCE
550	0.0010048
562	0.000612
574	0.000604
586	0.0008328
598	0.0008144
610	0.0007208
622	0.0007352
634	0.0007536
646	0.0008192
658	0.0009328
670	0.0008488
682	0.0006032
694	0.0004368
706	0.0003616
718	0.0002848
730	0.0002552
742	0.0001128
754	0.000212
766	0.000132
778	0.0001184
790	0.0001896
802	0.0002392
814	0.000288
826	0.0004488
838	0.0005848
850	0.000792
862	0.001232
874	0.0020512
886	0.0036632
898	0.006004
910	0.0077056
922	0.008
934	0.0063416
946	0.004476
958	0.0035016
970	0.0033824
982	0.0038568
994	0.0040536
1006	0.00346
1018	0.0023944
1030	0.00164
1042	0.0012168
1054	0.0008992
1066	0.0006968
1078	0.0006048
1090	0.0005976
1102	0.0005336
1114	0.000564
1126	0.0005336
1138	0.000456
1150	0.0004296
1162	0.0003752
1174	0.0002792
1186	0.00018
1198	0.0002648
1210	0.0003152
1222	0.0002864
1234	0.0002312
1246	0.0002224
1258	0.0003736
1270	0.0005408
1282	0.0006384
1294	0.0005768
1306	0.0003664
1318	0.0003088
1330	0.0003176
1342	0.000324
1354	0.0003704
1366	0.0004064
1378	0.0004704
1390	0.0006736
1402	0.0010528
1414	0.0013504
1426	0.0015728
1438	0.0014432
1450	0.0011584
1462	0.0007768
1474	0.0005608
1486	0.000392
1498	0.0002816
1510	0.0003616
1522	0.0003032
1534	0.0003056
1546	0.0003296
1558	0.0003592
1570	0.0003888
1582	0.0004672
1594	0.0006088
1606	0.001024
1618	0.00212
1630	0.0033592
1642	0.0034224
1654	0.0025664
1666	0.0009936
1678	0.000504
1690	0.0003424
1702	0.0002912
1714	0.0001808
1726	0.0001768
1738	0.000148
1750	0.0001856
1762	0.000168
1774	0.0002128
1786	0.000256
1798	0.000328
1810	0.0005088
1822	0.0008712
1834	0.0010128
1846	0.0009424
1858	0.0005912
1870	0.0003432
1882	0.0002576
1894	0.0002432
1906	0.0002104
1918	0.000184
1930	0.0002128
1942	0.0002024
1954	0.00026
1966	0.0003288
1978	0.0002384
1990	0.0002472
2002	0.0002272
2014	0.0001784
2026	0.0001832
2038	0.0001664
2050	0.0001616
2062	0.0001608
2074	0.0001584
2086	0.0001512
2098	0.0001248
2110	0.0001672
2122	0.0001584
2134	0.0001296
2146	0.0001536
2158	0.0001584
2170	0.0002
2182	0.0001936
2194	0.0002008
2206	0.0001808
2218	0.0001488
2230	0.0001504
2242	0.000172
2254	0.000196
2266	0.0002096
2278	0.0001656
2290	0.0001752
2302	0.0002104
2314	0.0002016
2326	0.0001712
2338	0.000196
2350	0.0001952
2362	0.0002
2374	0.0001912
2386	0.0002184
2398	0.0001944
2410	0.0001664
2422	0.0001752
2434	0.0001968
2446	8.08e-05
2458	0.000156
2470	0.0001984
2482	0.000184
2494	0.0001784
2506	0.0001752
2518	0.0001752
2530	0.0001792
2542	0.00014
2554	0.0001584
2566	0.0001464
2578	0.0001376
2590	0.0001856
2602	0.0001608
2614	0.00014
2626	0.0001336
2638	0.0001824
2650	0.0001752
2662	0.0001512
2674	0.0001536
2686	0.00016
2698	0.000188
2710	0.000228
2722	0.0002376
2734	0.0001768
2746	0.0001848
2758	0.000176
2770	0.0001592
2782	0.0002008
2794	0.0003064
2806	0.0004592
2818	0.0006512
2830	0.0008896
2842	0.0010096
2854	0.0010568
2866	0.0012184
2878	0.0016296
2890	0.0022472
2902	0.0026496
2914	0.0028392
2926	0.0026592
2938	0.0023672
2950	0.0021448
2962	0.00218
2974	0.0028408
2986	0.0033896
2998	0.0039128
3010	0.0037184
3022	0.0032272
3034	0.0025016
3046	0.0021616
3058	0.0026408
3070	0.003892
3082	0.0049288
3094	0.0045304
3106	0.0033032
3118	0.0015448
3130	0.0008416
3142	0.0005656
3154	0.0004432
3166	0.0002928
3178	0.000168
3190	0.00024
3202	0.000128
3214	0.0001808
3226	7.68e-05
3238	0.0001256
3250	0.0001688
3262	0.0001368
3274	0.0001528
3286	0.000156
3298	0.0001056
3310	0.0001152
3322	0.0001616
3334	0.0001568
3346	0.0001344
3358	8.4e-05
3370	0.0001376
3382	0.000112
3394	5.28e-05
3406	7.84e-05
3418	0.0001296
3430	7.6e-05
3442	9.52e-05
3454	9.2e-05
3466	9.52e-05
3478	9.36e-05
3490	9.52e-05
3502	0.0001416
3514	7.68e-05
3526	0.0001096
3538	6.4e-06
3550	6.4e-05
3562	5.52e-05
3574	0.000132
3586	7.12e-05
3598	7.36e-05
3610	7.84e-05
3622	0.0001056
3634	6.72e-05
3646	4.56e-05
3658	0.0001072
3670	5.2e-05
3682	9.28e-05
3694	7.52e-05
3706	4.96e-05
3718	9.12e-05
3730	0.0001576
3742	9.28e-05
3754	8.08e-05
3766	4.56e-05
3778	9.92e-05
3790	3.52e-05
3802	8.32e-05
3814	3.84e-05
3826	3.44e-05
3838	2.08e-05
