Infrared Spectrum: 1,4-Pentadiene
Formula: C5 H8
CAS: 591-93-5
State: GAS (100 mmHg, N2 ADDED, TOTAL PRESSURE 600 mmHg)
Class: COBLENTZ
Instrument: DOW KBr FOREPRISM-GRATING
Instrument parameters: GRATING CHANGED AT 5.0, 7.5, 15.0 MICRON
Sampling: TRANSMISSION
Path length: 5 CM
Resolution: 2
Origin: DOW CHEMICAL COMPANY
1/CM	TRANSMITTANCE
460	0.7931
469	0.8112
478	0.8189
487	0.8163
496	0.8094
505	0.8006
514	0.7884
523	0.7686
532	0.7348
541	0.6935
550	0.64
559	0.6151
568	0.6304
577	0.6327
586	0.6037
595	0.5767
604	0.6039
613	0.6844
622	0.6881
631	0.6597
640	0.6262
649	0.5796
658	0.5631
667	0.581
676	0.6293
685	0.6872
694	0.7304
703	0.7655
712	0.7957
721	0.8151
730	0.8247
739	0.8291
748	0.836
757	0.8408
766	0.8428
775	0.8419
784	0.84
793	0.8347
802	0.8277
811	0.8182
820	0.8036
829	0.7854
838	0.7802
847	0.772
856	0.7532
865	0.6993
874	0.5947
883	0.3783
892	0.177
901	0.0482
910	0.0203
919	0.0253
928	0.0458
937	0.1549
946	0.3083
955	0.4701
964	0.4669
973	0.3324
982	0.1964
991	0.133
1000	0.1366
1009	0.2598
1018	0.427
1027	0.6069
1036	0.6622
1045	0.6607
1054	0.6506
1063	0.6677
1072	0.6976
1081	0.7296
1090	0.7672
1099	0.7687
1108	0.7411
1117	0.7241
1126	0.7332
1135	0.7469
1144	0.7503
1153	0.7627
1162	0.7944
1171	0.8236
1180	0.8278
1189	0.8317
1198	0.8259
1207	0.8169
1216	0.7996
1225	0.8001
1234	0.8077
1243	0.8265
1252	0.8185
1261	0.7602
1270	0.6935
1279	0.6835
1288	0.7044
1297	0.7569
1306	0.7672
1315	0.7807
1324	0.7991
1333	0.798
1342	0.7833
1351	0.745
1360	0.6953
1369	0.6652
1378	0.6656
1387	0.6729
1396	0.6456
1405	0.5641
1414	0.471
1423	0.396
1432	0.4028
1441	0.4489
1450	0.5512
1459	0.6889
1468	0.7512
1477	0.7843
1486	0.7982
1495	0.8017
1504	0.7975
1513	0.8031
1522	0.8072
1531	0.8132
1540	0.8094
1549	0.8055
1558	0.7952
1567	0.7865
1576	0.7786
1585	0.7771
1594	0.7733
1603	0.7436
1612	0.662
1621	0.5593
1630	0.2004
1639	0.1364
1648	0.1323
1657	0.3587
1666	0.6166
1675	0.7643
1684	0.8004
1693	0.8145
1702	0.8229
1711	0.8275
1720	0.8325
1729	0.8345
1738	0.8344
1747	0.8322
1756	0.8296
1765	0.8272
1774	0.8238
1783	0.8191
1792	0.8107
1801	0.7964
1810	0.7585
1819	0.6615
1828	0.5295
1837	0.5485
1846	0.6142
1855	0.7679
1864	0.8033
1873	0.8221
1882	0.8303
1891	0.8304
1900	0.83
1909	0.8321
1918	0.8374
1927	0.8421
1936	0.844
1945	0.8401
1954	0.8317
1963	0.8147
1972	0.7995
1981	0.8062
1990	0.8205
1999	0.8366
2008	0.8424
2017	0.8457
2026	0.8467
2035	0.8472
2044	0.8475
2053	0.8483
2062	0.8493
2071	0.8503
2080	0.8509
2089	0.8513
2098	0.8513
2107	0.8514
2116	0.8514
2125	0.8512
2134	0.8505
2143	0.8508
2152	0.8506
2161	0.8486
2170	0.8457
2179	0.8424
2188	0.8404
2197	0.8427
2206	0.8467
2215	0.8506
2224	0.8529
2233	0.8535
2242	0.8528
2251	0.8519
2260	0.8509
2269	0.8501
2278	0.8493
2287	0.8487
2296	0.8482
2305	0.8485
2314	0.8505
2323	0.8533
2332	0.8559
2341	0.8597
2350	0.8613
2359	0.8595
2368	0.8565
2377	0.8537
2386	0.8535
2395	0.8549
2404	0.8568
2413	0.8574
2422	0.8573
2431	0.8571
2440	0.8571
2449	0.86
2458	0.8603
2467	0.8582
2476	0.8565
2485	0.8548
2494	0.853
2503	0.8512
2512	0.8503
2521	0.8527
2530	0.8553
2539	0.8561
2548	0.8567
2557	0.8573
2566	0.8578
2575	0.8578
2584	0.8565
2593	0.8551
2602	0.8558
2611	0.8569
2620	0.8589
2629	0.8611
2638	0.8625
2647	0.8632
2656	0.8619
2665	0.8607
2674	0.8583
2683	0.8533
2692	0.846
2701	0.8384
2710	0.8371
2719	0.8382
2728	0.8411
2737	0.8447
2746	0.8484
2755	0.8519
2764	0.8547
2773	0.8552
2782	0.8516
2791	0.8362
2800	0.8046
2809	0.7368
2818	0.6691
2827	0.6017
2836	0.5785
2845	0.5789
2854	0.5928
2863	0.5815
2872	0.5399
2881	0.4398
2890	0.3294
2899	0.2382
2908	0.2309
2917	0.2524
2926	0.2975
2935	0.4197
2944	0.4792
2953	0.4761
2962	0.3424
2971	0.2064
2980	0.1638
2989	0.1412
2998	0.1372
3007	0.1615
3016	0.1966
3025	0.425
3034	0.5387
3043	0.5372
3052	0.4225
3061	0.2966
3070	0.1709
3079	0.0702
3088	0.0739
3097	0.1225
3106	0.4815
3115	0.7308
3124	0.7953
3133	0.8211
3142	0.8306
3151	0.8367
3160	0.8418
3169	0.8463
3178	0.8504
3187	0.853
3196	0.8555
3205	0.8582
3214	0.86
3223	0.8611
3232	0.8614
3241	0.8612
3250	0.8607
3259	0.8589
3268	0.8565
3277	0.8575
3286	0.8609
3295	0.862
3304	0.8621
3313	0.8619
3322	0.8616
3331	0.8611
3340	0.8612
3349	0.8614
3358	0.863
3367	0.8621
3376	0.8612
3385	0.8633
3394	0.8666
3403	0.8704
3412	0.8693
3421	0.8666
3430	0.8635
3439	0.8608
3448	0.8604
3457	0.8619
3466	0.8635
3475	0.865
3484	0.8666
3493	0.8682
3502	0.8687
3511	0.8691
3520	0.8696
3529	0.8696
3538	0.8697
3547	0.8704
3556	0.8729
3565	0.874
3574	0.8721
3583	0.8694
3592	0.8685
3601	0.8686
3610	0.8689
3619	0.8693
3628	0.8699
3637	0.8697
3646	0.8691
3655	0.8683
3664	0.8673
3673	0.8666
3682	0.8682
3691	0.87
3700	0.8715
3709	0.8723
3718	0.873
3727	0.8734
3736	0.874
3745	0.874
3754	0.8734
3763	0.8724
3772	0.8715
