Infrared Spectrum: 2-Butanone oxime
Formula: C4 H9 N O
CAS: 96-29-7
State: SOLUTION SALTED (CCl4 FOR 3800-1350, CS2 FOR 1350-400)
Class: COBLENTZ III
Instrument: DOW KBr FOREPRISM-GRATING
Instrument parameters: BLAZED AT 3.5, 12.0, 20.0 AND CHANGED AT 5.0, 7.5, 14.9 MICRON
Sampling: TRANSMISSION
Path length: 0.0114 CM, 0.0108 CM
Resolution: 2
Origin: DOW CHEMICAL COMPANY
1/CM	TRANSMITTANCE
3800	0.9308
3791	0.9308
3782	0.9279
3773	0.9278
3764	0.9264
3755	0.9249
3746	0.9236
3737	0.9243
3728	0.9242
3719	0.9205
3710	0.9197
3701	0.9152
3692	0.9074
3683	0.8953
3674	0.8695
3665	0.8575
3656	0.8653
3647	0.8755
3638	0.8777
3629	0.8681
3620	0.7924
3611	0.7475
3602	0.5592
3593	0.608
3584	0.6834
3575	0.7519
3566	0.7581
3557	0.7555
3548	0.7368
3539	0.7049
3530	0.675
3521	0.6452
3512	0.6038
3503	0.5617
3494	0.5189
3485	0.4906
3476	0.4576
3467	0.4252
3458	0.3977
3449	0.365
3440	0.3241
3431	0.2894
3422	0.26
3413	0.2312
3404	0.2053
3395	0.1802
3386	0.161
3377	0.1418
3368	0.1205
3359	0.0975
3350	0.0824
3341	0.0713
3332	0.063
3323	0.0559
3314	0.0494
3305	0.0448
3296	0.0411
3287	0.0379
3278	0.037
3269	0.0364
3260	0.0361
3251	0.0357
3242	0.0366
3233	0.0384
3224	0.0435
3215	0.0489
3206	0.0577
3197	0.0675
3188	0.0791
3179	0.0896
3170	0.1
3161	0.1103
3152	0.1208
3143	0.1227
3134	0.1251
3125	0.128
3116	0.1321
3107	0.1386
3098	0.1499
3089	0.1632
3080	0.1754
3071	0.1887
3062	0.2069
3053	0.2266
3044	0.2481
3035	0.2632
3026	0.2796
3017	0.2833
3008	0.2735
2999	0.2313
2990	0.1524
2981	0.0781
2972	0.0282
2963	0.0747
2954	0.1291
2945	0.1107
2936	0.0708
2927	0.0925
2918	0.0832
2909	0.0949
2900	0.1145
2891	0.1185
2882	0.1143
2873	0.1135
2864	0.1918
2855	0.2285
2846	0.2845
2837	0.3285
2828	0.3767
2819	0.4074
2810	0.4404
2801	0.4857
2792	0.5269
2783	0.5567
2774	0.5744
2765	0.5893
2756	0.6033
2747	0.6195
2738	0.6352
2729	0.6535
2720	0.6764
2711	0.6975
2702	0.7164
2693	0.7304
2684	0.7441
2675	0.7579
2666	0.7743
2657	0.7841
2648	0.7865
2639	0.7901
2630	0.8026
2621	0.8159
2612	0.8223
2603	0.8277
2594	0.8326
2585	0.8376
2576	0.8425
2567	0.8475
2558	0.8525
2549	0.8568
2540	0.8601
2531	0.8637
2522	0.8679
2513	0.8721
2504	0.8764
2495	0.8806
2486	0.8853
2477	0.8877
2468	0.8858
2459	0.8841
2450	0.884
2441	0.8873
2432	0.8896
2423	0.8917
2414	0.8936
2405	0.8964
2396	0.8979
2387	0.9004
2378	0.9053
2369	0.907
2360	0.9056
2351	0.9078
2342	0.9093
2333	0.9112
2324	0.9145
2315	0.91
2306	0.905
2297	0.9031
2288	0.9007
2279	0.9016
2270	0.902
2261	0.9021
2252	0.9025
2243	0.9027
2234	0.9044
2225	0.9068
2216	0.9067
2207	0.9084
2198	0.9105
2189	0.9096
2180	0.9096
2171	0.9062
2162	0.9063
2153	0.9078
2144	0.9085
2135	0.9084
2126	0.9082
2117	0.9079
2108	0.9071
2099	0.9057
2090	0.9043
2081	0.9034
2072	0.9031
2063	0.9028
2054	0.9041
2045	0.9023
2036	0.9017
2027	0.9021
2018	0.902
2009	0.9014
2000	0.9
1991	0.8546
1982	0.8897
1973	0.8909
1964	0.8928
1955	0.8958
1946	0.8947
1937	0.8959
1928	0.894
1919	0.8946
1910	0.8913
1901	0.8886
1892	0.8864
1883	0.8855
1874	0.8805
1865	0.8757
1856	0.8759
1847	0.8753
1838	0.8835
1829	0.8799
1820	0.8806
1811	0.8817
1802	0.8803
1793	0.8797
1784	0.8769
1775	0.8721
1766	0.8723
1757	0.8759
1748	0.8743
1739	0.8701
1730	0.8662
1721	0.8623
1712	0.8534
1703	0.8457
1694	0.8369
1685	0.8211
1676	0.6517
1667	0.4992
1658	0.5779
1649	0.7324
1640	0.7956
1631	0.8033
1622	0.7984
1613	0.7937
1604	0.7713
1595	0.7432
1586	0.7479
1577	0.7444
1568	0.7128
1559	0.6618
1550	0.7081
1541	0.7006
1532	0.6847
1523	0.6527
1514	0.6192
1505	0.5667
1496	0.4896
1487	0.4109
1478	0.3557
1469	0.1868
1460	0.0956
1451	0.1864
1442	0.2291
1433	0.2447
1424	0.296
1415	0.3623
1406	0.434
1397	0.4728
1388	0.41
1379	0.2085
1370	0.1364
1361	0.4874
1352	0.5736
1343	0.6259
1334	0.6111
1325	0.5316
1316	0.6506
1307	0.7376
1298	0.7632
1289	0.7652
1280	0.6563
1271	0.6114
1262	0.718
1253	0.7436
1244	0.4518
1235	0.6114
1226	0.5861
1217	0.6304
1208	0.81
1199	0.862
1190	0.8888
1181	0.8961
1172	0.9081
1163	0.9175
1154	0.9188
1145	0.9146
1136	0.9146
1127	0.9018
1118	0.8771
1109	0.6899
1100	0.3772
1091	0.5602
1082	0.627
1073	0.3585
1064	0.7022
1055	0.8255
1046	0.8549
1037	0.8483
1028	0.8024
1019	0.714
1010	0.4626
1001	0.4405
992	0.3016
983	0.1884
974	0.1924
965	0.4125
956	0.4634
947	0.3134
938	0.0766
929	0.0752
920	0.197
911	0.3419
902	0.4988
893	0.6664
884	0.7558
875	0.7717
866	0.7611
857	0.7574
848	0.7841
839	0.7441
830	0.7106
821	0.6697
812	0.5976
803	0.3485
794	0.4452
785	0.4411
776	0.3806
767	0.4163
758	0.395
749	0.3779
740	0.388
731	0.4162
722	0.4515
713	0.4846
704	0.5178
695	0.5532
686	0.5879
677	0.612
668	0.6424
659	0.6443
650	0.6359
641	0.6529
632	0.6573
623	0.6241
614	0.4503
605	0.5213
596	0.6374
587	0.7016
578	0.7432
569	0.7784
560	0.7997
551	0.811
542	0.8218
533	0.798
524	0.7131
515	0.7843
506	0.8192
497	0.8221
488	0.804
479	0.8088
470	0.8102
461	0.7836
452	0.7349
443	0.742
434	0.7072
425	0.6486
416	0.5026
407	0.3153
398	0.1555
389	0.1129
