Infrared Spectrum: 2-BUTANONE OXIME
Formula: C4 H9 N O
CAS: 96-29-7
State: SOLUTION (10% IN CCl4 FOR 3800-1300, 10% IN CS2 FOR 1300-650, 10% IN CCl4 FOR 650-250 CM^-^1) VERSUS SOLVENT
Class: COBLENTZ
Instrument: PERKIN-ELMER 521 (GRATING)
Instrument parameters: FILTERS AT 3150, 2500, 2000, 1150, 700, 410; GRATING CHANGES AT 2000, 630 CM^-^1
Sampling: TRANSMISSION
Path length: 0.012, 0.011, AND 0.010 CM (CsBr CELL)
Resolution: 4
Origin: DOW CORNING CORP.
1/CM	TRANSMITTANCE
247.213	0.748
257.049	0.748
266.885	0.751
276.721	0.751
286.557	0.75
296.393	0.75
306.229	0.751
316.065	0.748
325.902	0.74
335.738	0.711
345.574	0.696
355.41	0.683
365.246	0.653
375.082	0.652
384.918	0.663
394.754	0.668
404.59	0.665
414.426	0.672
424.262	0.702
434.098	0.715
443.934	0.704
453.77	0.685
463.607	0.71
473.443	0.719
483.279	0.707
493.115	0.718
502.951	0.727
512.787	0.706
522.623	0.646
532.459	0.685
542.295	0.716
552.131	0.708
561.967	0.7
571.803	0.679
581.639	0.638
591.475	0.606
601.312	0.493
611.148	0.434
620.984	0.553
630.82	0.6
640.656	0.605
650.492	0.587
660.328	0.573
670.164	0.565
680	0.555
689.836	0.524
699.672	0.491
709.508	0.463
719.344	0.42
729.18	0.387
739.017	0.37
748.853	0.373
758.689	0.387
768.525	0.379
778.361	0.412
788.197	0.406
798.033	0.383
807.869	0.544
817.705	0.633
827.541	0.675
837.377	0.71
847.213	0.727
857.049	0.726
866.885	0.719
876.722	0.704
886.558	0.673
896.394	0.575
906.23	0.348
916.066	0.198
925.902	0.079
935.738	0.103
945.574	0.363
955.41	0.444
965.246	0.344
975.082	0.182
984.918	0.246
994.754	0.402
1004.59	0.441
1014.43	0.579
1024.26	0.722
1034.1	0.77
1043.93	0.766
1053.77	0.734
1063.61	0.605
1073.44	0.379
1083.28	0.532
1093.12	0.381
1102.95	0.646
1112.79	0.825
1122.62	0.855
1132.46	0.861
1142.3	0.867
1152.13	0.867
1161.97	0.857
1171.8	0.84
1181.64	0.826
1191.48	0.806
1201.31	0.734
1211.15	0.626
1220.98	0.557
1230.82	0.54
1240.66	0.455
1250.49	0.688
1260.33	0.64
1270.16	0.604
1280	0.72
1289.84	0.73
1299.67	0.718
1309.51	0.605
1319.34	0.527
1329.18	0.546
1339.02	0.582
1348.85	0.506
1358.69	0.432
1368.53	0.15
1378.36	0.204
1388.2	0.43
1398.03	0.406
1407.87	0.35
1417.71	0.263
1427.54	0.198
1437.38	0.177
1447.21	0.144
1457.05	0.087
1466.89	0.225
1476.72	0.342
1486.56	0.414
1496.39	0.499
1506.23	0.591
1516.07	0.636
1525.9	0.677
1535.74	0.702
1545.57	0.71
1555.41	0.734
1565.25	0.742
1575.08	0.746
1584.92	0.747
1594.75	0.748
1604.59	0.748
1614.43	0.748
1624.26	0.748
1634.1	0.744
1643.94	0.722
1653.77	0.608
1663.61	0.444
1673.44	0.597
1683.28	0.791
1693.12	0.84
1702.95	0.844
1712.79	0.849
1722.62	0.859
1732.46	0.872
1742.3	0.875
1752.13	0.876
1761.97	0.876
1771.8	0.876
1781.64	0.876
1791.48	0.876
1801.31	0.876
1811.15	0.877
1820.98	0.876
1830.82	0.877
1840.66	0.877
1850.49	0.877
1860.33	0.88
1870.16	0.88
1880	0.887
1889.84	0.889
1899.67	0.892
1909.51	0.897
1919.34	0.902
1929.18	0.904
1939.02	0.907
1948.85	0.91
1958.69	0.91
1968.53	0.911
1978.36	0.911
1988.2	0.912
1998.03	0.912
2007.87	0.912
2017.71	0.912
2027.54	0.911
2037.38	0.911
2047.21	0.91
2057.05	0.908
2066.89	0.907
2076.72	0.907
2086.56	0.908
2096.39	0.91
2106.23	0.91
2116.07	0.911
2125.9	0.911
2135.74	0.91
2145.57	0.907
2155.41	0.904
2165.25	0.904
2175.08	0.904
2184.92	0.903
2194.75	0.902
2204.59	0.897
2214.43	0.895
2224.26	0.895
2234.1	0.893
2243.94	0.893
2253.77	0.893
2263.61	0.893
2273.44	0.892
2283.28	0.892
2293.12	0.892
2302.95	0.892
2312.79	0.889
2322.62	0.889
2332.46	0.889
2342.3	0.888
2352.13	0.887
2361.97	0.885
2371.8	0.884
2381.64	0.881
2391.48	0.881
2401.31	0.879
2411.15	0.876
2420.98	0.872
2430.82	0.865
2440.66	0.863
2450.49	0.859
2460.33	0.856
2470.16	0.855
2480	0.855
2489.84	0.853
2499.67	0.852
2509.51	0.846
2519.35	0.844
2529.18	0.842
2539.02	0.837
2548.85	0.825
2558.69	0.818
2568.53	0.813
2578.36	0.809
2588.2	0.802
2598.03	0.797
2607.87	0.791
2617.71	0.785
2627.54	0.7631
2637.38	0.751
2647.21	0.744
2657.05	0.736
2666.89	0.726
2676.72	0.716
2686.56	0.6802
2696.39	0.675
2706.23	0.656
2716.07	0.633
2725.9	0.604
2735.74	0.585
2745.57	0.574
2755.41	0.546
2765.25	0.527
2775.08	0.515
2784.92	0.4871
2794.76	0.46
2804.59	0.4061
2814.43	0.385
2824.26	0.3381
2834.1	0.268
2843.94	0.2281
2853.77	0.182
2863.61	0.158
2873.44	0.0921
2883.28	0.073
2893.12	0.076
2902.95	0.067
2912.79	0.056
2922.62	0.056
2932.46	0.056
2942.3	0.064
2952.13	0.077
2961.97	0.0481
2971.8	0.021
2981.64	0.0528
2991.48	0.1179
3001.31	0.1908
3011.15	0.222
3020.98	0.226
3030.82	0.221
3040.66	0.209
3050.49	0.185
3060.33	0.17
3070.17	0.15
3080	0.1161
3089.84	0.104
3099.67	0.089
3109.51	0.084
3119.35	0.081
3129.18	0.081
3139.02	0.08
3148.85	0.077
3158.69	0.071
3168.53	0.057
3178.36	0.044
3188.2	0.036
3198.03	0.029
3207.87	0.024
3217.71	0.018
3227.54	0.014
3237.38	0.012
3247.21	0.01
3257.05	0.013
3266.89	0.014
3276.72	0.018
3286.56	0.021
3296.39	0.022
3306.23	0.026
3316.07	0.029
3325.9	0.032
3335.74	0.037
3345.58	0.042
3355.41	0.052
3365.25	0.072
3375.08	0.085
3384.92	0.112
3394.76	0.128
3404.59	0.162
3414.43	0.186
3424.26	0.212
3434.1	0.245
3443.94	0.279
3453.77	0.323
3463.61	0.353
3473.44	0.3939
3483.28	0.44
3493.12	0.4749
3502.95	0.515
3512.79	0.55
3522.62	0.586
3532.46	0.6179
3542.3	0.646
3552.13	0.6749
3561.97	0.692
3571.8	0.689
3581.64	0.673
3591.48	0.6221
3601.31	0.508
3611.15	0.5649
3620.99	0.7689
3630.82	0.834
3640.66	0.838
3650.49	0.833
3660.33	0.825
3670.17	0.829
3680	0.855
3689.84	0.876
3699.67	0.889
3709.51	0.899
3719.35	0.9
3729.18	0.903
3739.02	0.906
3748.85	0.906
3758.69	0.906
3768.53	0.906
3778.36	0.906
3788.2	0.906
