Infrared Spectrum: METHYLETHYLKETOXIME
Formula: C4 H9 N O
CAS: 96-29-7
State: SOLUTION (10% CCl4 FOR 5000-1330, 10% CS2 FOR 1330-625 CM^-^1)
Class: COBLENTZ
Instrument: Not specified, most likely a prism, grating, or hybrid spectrometer.
Sampling: TRANSMISSION
Path length: 0.0121 CM, 0.0116 CM
Resolution: 4
Origin: DOW CHEMICAL COMPANY
MICROMETERS	TRANSMITTANCE
2.034	0.843
2.07522	0.843
2.11644	0.843
2.15766	0.845
2.19888	0.843
2.24009	0.823
2.28131	0.821
2.32253	0.83
2.36375	0.837
2.40497	0.843
2.44619	0.845
2.48741	0.833
2.52863	0.842
2.56984	0.843
2.61106	0.854
2.65228	0.862
2.6935	0.845
2.73472	0.819
2.77594	0.749
2.81716	0.66
2.85838	0.588
2.89959	0.425
2.94081	0.259
2.98203	0.135
3.02325	0.066
3.06447	0.058
3.10569	0.058
3.14691	0.089
3.18813	0.125
3.22934	0.154
3.27056	0.202
3.31178	0.259
3.353	0.243
3.39422	0.082
3.43544	0.111
3.47666	0.142
3.51788	0.296
3.5591	0.44
3.60031	0.555
3.64153	0.6
3.68275	0.656
3.72397	0.715
3.76519	0.753
3.80641	0.775
3.84763	0.797
3.88885	0.813
3.93006	0.83
3.97128	0.835
4.0125	0.842
4.05372	0.843
4.09494	0.85
4.13616	0.861
4.17738	0.861
4.2186	0.842
4.25981	0.845
4.30103	0.861
4.34225	0.859
4.38347	0.852
4.42469	0.861
4.46591	0.869
4.50713	0.876
4.54835	0.879
4.58956	0.883
4.63078	0.879
4.672	0.879
4.71322	0.885
4.75444	0.881
4.79566	0.883
4.83688	0.881
4.8781	0.879
4.91931	0.879
4.96053	0.878
5.00175	0.876
5.04297	0.879
5.08419	0.881
5.12541	0.881
5.16663	0.881
5.20785	0.876
5.24907	0.874
5.29028	0.866
5.3315	0.861
5.37272	0.854
5.41394	0.852
5.45516	0.852
5.49638	0.857
5.5376	0.861
5.57882	0.854
5.62003	0.861
5.66125	0.855
5.70247	0.854
5.74369	0.842
5.78491	0.833
5.82613	0.825
5.86735	0.814
5.90857	0.814
5.94978	0.778
5.991	0.644
6.03222	0.533
6.07344	0.622
6.11466	0.759
6.15588	0.759
6.1971	0.727
6.23832	0.684
6.27953	0.596
6.32075	0.557
6.36197	0.53
6.40319	0.502
6.44441	0.464
6.48563	0.432
6.52685	0.445
6.56807	0.466
6.60929	0.483
6.6505	0.492
6.69172	0.483
6.73294	0.432
6.77416	0.363
6.81538	0.277
6.8566	0.18
6.89782	0.192
6.93904	0.233
6.98025	0.25
7.02147	0.283
7.06269	0.336
7.10391	0.413
7.14513	0.445
7.18635	0.459
7.22757	0.392
7.26879	0.252
7.31	0.217
7.35122	0.401
7.39244	0.548
7.43366	0.598
7.47488	0.603
7.5161	0.55
7.55732	0.554
7.59854	0.622
7.63975	0.668
7.68097	0.716
7.72219	0.739
7.76341	0.737
7.80463	0.675
7.84585	0.624
7.88707	0.614
7.92829	0.665
7.9695	0.699
8.01072	0.619
8.05194	0.504
8.09316	0.528
8.13438	0.59
8.1756	0.548
8.21682	0.566
8.25804	0.68
8.29926	0.754
8.34047	0.801
8.38169	0.828
8.42291	0.831
8.46413	0.831
8.50535	0.831
8.54657	0.828
8.58779	0.83
8.62901	0.842
8.67022	0.849
8.71144	0.85
8.75266	0.85
8.79388	0.847
8.8351	0.843
8.87632	0.835
8.91754	0.825
8.95876	0.814
8.99997	0.785
9.04119	0.728
9.08241	0.614
9.12363	0.469
9.16485	0.421
9.20607	0.488
9.24729	0.572
9.28851	0.557
9.32972	0.457
9.37094	0.411
9.41216	0.617
9.45338	0.716
9.4946	0.753
9.53582	0.761
9.57704	0.768
9.61826	0.771
9.65948	0.768
9.70069	0.758
9.74191	0.735
9.78313	0.708
9.82435	0.668
9.86557	0.6
9.90679	0.518
9.94801	0.466
9.98923	0.451
10.0304	0.437
10.0717	0.403
10.1129	0.344
10.1541	0.281
10.1953	0.246
10.2365	0.214
10.2778	0.19
10.319	0.233
10.3602	0.339
10.4014	0.427
10.4426	0.454
10.4839	0.457
10.5251	0.43
10.5663	0.399
10.6075	0.349
10.6487	0.207
10.6899	0.133
10.7312	0.08
10.7724	0.072
10.8136	0.072
10.8548	0.082
10.896	0.144
10.9373	0.204
10.9785	0.25
11.0197	0.308
11.0609	0.363
11.1021	0.433
11.1434	0.512
11.1846	0.578
11.2258	0.62
11.267	0.641
11.3082	0.648
11.3494	0.651
11.3907	0.651
11.4319	0.646
11.4731	0.639
11.5143	0.636
11.5555	0.627
11.5968	0.619
11.638	0.608
11.6792	0.603
11.7204	0.603
11.7616	0.615
11.8029	0.631
11.8441	0.653
11.8853	0.67
11.9265	0.677
11.9677	0.682
12.0089	0.682
12.0502	0.679
12.0914	0.672
12.1326	0.663
12.1738	0.656
12.215	0.646
12.2563	0.639
12.2975	0.619
12.3387	0.602
12.3799	0.56
12.4211	0.5
12.4624	0.432
12.5036	0.387
12.5448	0.399
12.586	0.432
12.6272	0.451
12.6684	0.44
12.7097	0.425
12.7509	0.416
12.7921	0.423
12.8333	0.435
12.8745	0.433
12.9158	0.418
12.957	0.399
12.9982	0.394
13.0394	0.399
13.0806	0.403
13.1219	0.409
13.1631	0.408
13.2043	0.403
13.2455	0.391
13.2867	0.382
13.3279	0.372
13.3692	0.365
13.4104	0.358
13.4516	0.353
13.4928	0.348
13.534	0.348
13.5753	0.351
13.6165	0.351
13.6577	0.353
13.6989	0.355
13.7401	0.358
13.7814	0.363
13.8226	0.37
13.8638	0.377
13.905	0.384
13.9462	0.391
13.9874	0.397
14.0287	0.399
14.0699	0.404
14.1111	0.406
14.1523	0.408
14.1935	0.413
14.2348	0.416
14.276	0.418
14.3172	0.42
14.3584	0.42
14.3996	0.421
14.4409	0.423
14.4821	0.423
14.5233	0.421
14.5645	0.421
14.6057	0.421
14.6469	0.421
14.6882	0.42
14.7294	0.415
14.7706	0.408
14.8118	0.404
14.853	0.404
14.8943	0.403
14.9355	0.401
14.9767	0.401
15.0179	0.399
15.0591	0.396
15.1004	0.392
15.1416	0.387
15.1828	0.379
15.224	0.37
15.2652	0.361
15.3064	0.355
15.3477	0.351
15.3889	0.348
15.4301	0.343
15.4713	0.341
15.5125	0.341
15.5538	0.339
15.595	0.339
15.6362	0.337
15.6774	0.337
15.7186	0.332
15.7599	0.332
15.8011	0.329
15.8423	0.325
15.8835	0.324
15.9247	0.32
