Infrared Spectrum: 3-Methyl-2-buten-1-ol
Formula: C 5 H 10 O
CAS: 556-82-1
State: gas
Instrument: HP-GC/MS/IRD
Origin: NIST Mass Spectrometry Data Center
1/CM	ABSORBANCE
550	0.0002421
562	0.0001359
574	0.0001251
586	0.0001395
598	0.0001206
610	0.0001134
622	0.000117
634	0.0001053
646	6.75e-05
658	7.74e-05
670	6.12e-05
682	2.25e-05
694	6.12e-05
706	3.6e-05
718	7.65e-05
730	4.86e-05
742	0.0001161
754	0.0002061
766	0.0003132
778	0.0004464
790	0.0004986
802	0.0006984
814	0.0008262
826	0.0008046
838	0.0007407
850	0.0005481
862	0.0005211
874	0.0004905
886	0.0005049
898	0.0006219
910	0.0008829
922	0.0012987
934	0.0021123
946	0.0028719
958	0.0036342
970	0.004725
982	0.006597
994	0.0086148
1006	0.00882
1018	0.0073557
1030	0.0055953
1042	0.0041067
1054	0.0027729
1066	0.0017361
1078	0.0013248
1090	0.0011232
1102	0.0010989
1114	0.0010845
1126	0.0010503
1138	0.0009765
1150	0.0010314
1162	0.0011196
1174	0.0012384
1186	0.0014211
1198	0.001638
1210	0.0017325
1222	0.0017622
1234	0.0016902
1246	0.0014958
1258	0.0013797
1270	0.0012231
1282	0.0011376
1294	0.0010791
1306	0.0010791
1318	0.0012465
1330	0.0015786
1342	0.0017865
1354	0.0020412
1366	0.0028638
1378	0.003924
1390	0.0043929
1402	0.0033732
1414	0.0021528
1426	0.001764
1438	0.0018468
1450	0.001944
1462	0.0017883
1474	0.0014202
1486	0.0010557
1498	0.000711
1510	0.0005598
1522	0.0004509
1534	0.000441
1546	0.0004392
1558	0.000423
1570	0.0003942
1582	0.0003573
1594	0.0003591
1606	0.0003591
1618	0.0003771
1630	0.0003753
1642	0.0004698
1654	0.0008235
1666	0.0011826
1678	0.0010872
1690	0.0005409
1702	0.0001854
1714	8.82e-05
1726	3.15e-05
1738	2.97e-05
1750	1.8e-05
1762	4.59e-05
1774	5.13e-05
1786	2.97e-05
1798	5.13e-05
1810	3.15e-05
1822	3.42e-05
1834	2.88e-05
1846	3.6e-05
1858	1.35e-05
1870	3.42e-05
1882	2.52e-05
1894	1.62e-05
1906	4.5e-06
1918	2.34e-05
1930	3.87e-05
1942	6.12e-05
1954	6.84e-05
1966	8.55e-05
1978	9.09e-05
1990	8.1e-05
2002	8.01e-05
2014	7.29e-05
2026	7.11e-05
2038	1.53e-05
2050	4.95e-05
2062	2.43e-05
2074	1.26e-05
2086	9.9e-06
2098	1.17e-05
2110	1.89e-05
2122	2.61e-05
2134	2.88e-05
2146	4.32e-05
2158	2.97e-05
2170	2.97e-05
2182	2.88e-05
2194	3.15e-05
2206	1.35e-05
2218	3.69e-05
2230	1.98e-05
2242	4.32e-05
2254	4.59e-05
2266	2.61e-05
2278	3.33e-05
2290	2.79e-05
2302	4.5e-05
2314	6.84e-05
2326	7.56e-05
2338	0.0001071
2350	9.27e-05
2362	0.0001638
2374	0.000108
2386	7.47e-05
2398	8.37e-05
2410	7.2e-05
2422	7.38e-05
2434	6.39e-05
2446	9.9e-05
2458	9.45e-05
2470	6.57e-05
2482	8.37e-05
2494	5.67e-05
2506	7.47e-05
2518	8.1e-05
2530	8.64e-05
2542	7.11e-05
2554	5.76e-05
2566	6.21e-05
2578	6.48e-05
2590	8.46e-05
2602	0.0001053
2614	0.0001161
2626	0.0001098
2638	0.0001296
2650	0.0001116
2662	0.0001278
2674	0.0001422
2686	0.0001773
2698	0.0001971
2710	0.0002556
2722	0.0003546
2734	0.0005022
2746	0.000576
2758	0.0005373
2770	0.0005337
2782	0.0005751
2794	0.0006723
2806	0.0008667
2818	0.0011448
2830	0.0016191
2842	0.0023373
2854	0.0035955
2866	0.0050634
2878	0.0062388
2890	0.0066753
2902	0.0069615
2914	0.0079965
2926	0.008748
2938	0.0084195
2950	0.0068148
2962	0.006084
2974	0.005913
2986	0.0055935
2998	0.0044892
3010	0.0033156
3022	0.0025317
3034	0.0020601
3046	0.0016371
3058	0.001251
3070	0.0009918
3082	0.0008298
3094	0.0005895
3106	0.0004518
3118	0.0003744
3130	0.0002673
3142	0.0002124
3154	0.0001476
3166	0.0001476
3178	9.72e-05
3190	7.29e-05
3202	5.76e-05
3214	2.07e-05
3226	5.49e-05
3238	1.71e-05
3250	3.51e-05
3262	2.61e-05
3274	4.05e-05
3286	1.62e-05
3298	2.43e-05
3310	8.1e-06
3322	6.21e-05
3334	4.5e-05
3346	5.58e-05
3358	2.61e-05
3370	3.69e-05
3382	7.11e-05
3394	8.28e-05
3406	7.56e-05
3418	6.12e-05
3430	4.68e-05
3442	9e-05
3454	8.73e-05
3466	9.72e-05
3478	7.56e-05
3490	7.47e-05
3502	7.2e-05
3514	7.29e-05
3526	4.05e-05
3538	9e-07
3550	3.87e-05
3562	5.04e-05
3574	5.94e-05
3586	5.58e-05
3598	0.0001143
3610	0.0002007
3622	0.00036
3634	0.0006921
3646	0.0012114
3658	0.0014184
3670	0.0012132
3682	0.0007308
3694	0.0003411
3706	0.0002088
3718	0.000108
3730	8.64e-05
3742	6.66e-05
3754	7.38e-05
3766	6.84e-05
3778	5.85e-05
3790	8.37e-05
3802	0.0001188
3814	8.28e-05
3826	5.85e-05
3838	0.0001368
