Infrared Spectrum: Acetic acid, bromo-, methyl ester
Formula: C 3 H 5 Br O 2
CAS: 96-32-2
State: gas
Origin: Sadtler Research Labs Under US-EPA Contract
1/CM	ABSORBANCE
450	0.005175
462	0.0071875
474	0.00122187
486	0.00855312
498	0.01035
510	0.0167469
522	0.0141594
534	0.02875
546	0.0360813
558	0.0410406
570	0.0237906
582	0.029325
594	0.0237188
606	0.0215625
618	0.0269531
630	0.0302594
642	0.0234313
654	0.0290375
666	0.0646875
678	0.0750375
690	0.0590813
702	0.0380219
714	0.0367281
726	0.0329187
738	0.021275
750	0.0253
762	0.0158125
774	0.0154531
786	0.0214188
798	0.0204844
810	0.0211313
822	0.0270969
834	0.030475
846	0.033925
858	0.028175
870	0.0279594
882	0.0329187
894	0.0343562
906	0.0294687
918	0.0242219
930	0.0169625
942	0.0137281
954	0.0140156
966	0.0160281
978	0.0202687
990	0.0348594
1002	0.0825125
1014	0.153022
1026	0.132106
1038	0.0416875
1050	0.0319844
1062	0.0331344
1074	0.0437
1086	0.0721625
1098	0.127866
1110	0.217134
1122	0.243656
1134	0.186156
1146	0.209659
1158	0.250412
1170	0.196219
1182	0.145547
1194	0.143678
1206	0.172572
1218	0.186516
1230	0.129231
1242	0.111981
1254	0.168331
1266	0.354128
1278	0.698481
1290	0.600156
1302	0.248544
1314	0.139078
1326	0.0801406
1338	0.0506719
1350	0.0395312
1362	0.0316969
1374	0.0248687
1386	0.022425
1398	0.0253719
1410	0.04255
1422	0.0656937
1434	0.117228
1446	0.14835
1458	0.0616688
1470	0.0414
1482	0.0293969
1494	0.0227125
1506	0.0158844
1518	0.0150937
1530	0.0161719
1542	0.0131531
1554	0.0159562
1566	0.0165313
1578	0.0147344
1590	0.0142312
1602	0.0127219
1614	0.0108531
1626	0.00941563
1638	0.00927188
1650	0.00941563
1662	0.0111406
1674	0.0122188
1686	0.0142312
1698	0.0177531
1710	0.028175
1722	0.0489469
1734	0.102134
1746	0.248975
1758	0.480412
1770	0.590309
1782	0.418887
1794	0.232084
1806	0.105656
1818	0.0431969
1830	0.0191906
1842	0.0115719
1854	0.0105656
1866	0.0094875
1878	0.00884062
1890	0.00725938
1902	0.0071875
1914	0.00668438
1926	0.0069
1938	0.00812188
1950	0.00869687
1962	0.00955938
1974	0.008625
1986	0.00812188
1998	0.00812188
2010	0.00927188
2022	0.0101344
2034	0.0104937
2046	0.00884062
2058	0.00711562
2070	0.006325
2082	0.00567813
2094	0.006325
2106	0.00740312
2118	0.00790625
2130	0.0077625
2142	0.00625313
2154	0.00539062
2166	0.00531875
2178	0.0043125
2190	0.00330625
2202	0.0031625
2214	0.00194063
2226	0.00165313
2238	0.0020125
2250	0.00136563
2262	0.00179687
2274	0.00244375
2286	0.00309063
2298	0.00244375
2310	0.00136563
2322	0.000359375
2334	0.000359375
2346	0.000359375
2358	0.000359375
2370	0.000359375
2382	0.00115
2394	0.00150937
2406	0.00194063
2418	0.00194063
2430	0.00280313
2442	0.00251563
2454	0.0025875
2466	0.00208437
2478	0.0023
2490	0.00215625
2502	0.00165313
2514	0.001725
2526	0.00129375
2538	0.001725
2550	0.00208437
2562	0.00186875
2574	0.00186875
2586	0.00194063
2598	0.002875
2610	0.0025875
2622	0.00244375
2634	0.0020125
2646	0.00222813
2658	0.00208437
2670	0.00208437
2682	0.00215625
2694	0.00158125
2706	0.00158125
2718	0.001725
2730	0.001725
2742	0.001725
2754	0.00179687
2766	0.0023
2778	0.00222813
2790	0.0023
2802	0.002875
2814	0.00352187
2826	0.00582187
2838	0.009775
2850	0.0202687
2862	0.0204844
2874	0.0117156
2886	0.00999062
2898	0.0144469
2910	0.0200531
2922	0.0186875
2934	0.0204844
2946	0.0312656
2958	0.0991156
2970	0.117444
2982	0.051175
2994	0.0424062
3006	0.0418313
3018	0.0369437
3030	0.0337812
3042	0.0263781
3054	0.0187594
3066	0.0112844
3078	0.00941563
3090	0.00905625
3102	0.00704375
3114	0.00697187
3126	0.0054625
3138	0.00388125
3150	0.00323437
3162	0.00366563
3174	0.00309063
3186	0.0023
3198	0.0031625
3210	0.00323437
3222	0.00273125
3234	0.00265937
3246	0.0023
3258	0.00251563
3270	0.00237187
3282	0.00186875
3294	0.00273125
3306	0.00208437
3318	0.00194063
3330	0.00294687
3342	0.0025875
3354	0.00215625
3366	0.00194063
3378	0.00359375
3390	0.00301875
3402	0.00337813
3414	0.00222813
3426	0.00309063
3438	0.00330625
3450	0.00323437
3462	0.00323437
3474	0.00337813
3486	0.00481562
3498	0.00668438
3510	0.00840938
3522	0.00805
3534	0.00783437
3546	0.00639687
3558	0.00646875
3570	0.014375
3582	0.0200531
3594	0.0121469
3606	0.00445625
3618	0.00359375
3630	0.00122187
3642	0.0031625
3654	0.00165313
3666	0.00309063
3678	0.000790625
3690	0.00186875
3702	0.00129375
3714	0.00043125
3726	0.00122187
3738	0.000359375
3750	0.000359375
3762	0.00150937
3774	0.00107813
3786	0.00222813
3798	0.00107813
3810	0.00115
3822	0.00115
3834	0.00129375
3846	0.00107813
3858	0.00237187
3870	0.00165313
3882	0.00122187
3894	0.00179687
3906	0.00136563
3918	0.00280313
3930	0.0037375
3942	0.00380937
3954	0
3966	0.000359375
