Infrared Spectrum: Ethene, 1,2-dibromo-
Formula: C 2 H 2 Br 2
CAS: 540-49-8
State: gas
Origin: Sadtler Research Labs Under US-EPA Contract
1/CM	ABSORBANCE
450	0.0835446
462	0.0743762
474	0.0141268
486	0.00972972
498	0.0259147
510	0.0135655
522	0.0127235
534	0.0241372
546	0.029002
558	0.0362058
570	0.0762473
582	0.0886901
594	0.0583783
606	0.0198337
618	0.0242307
630	0.0274116
642	0.110208
654	0.354012
666	0.531954
678	0.761631
690	0.63187
702	0.0554781
714	0.0188981
726	0.0412578
738	0.220322
750	0.841153
762	0.638045
774	0.00860706
786	0.0146881
798	0.00729729
810	0.0198337
822	0.0311538
834	0.0352702
846	0.0362993
858	0.0549168
870	0.0686694
882	0.0908419
894	0.124989
906	0.101694
918	0.0861642
930	0.0921517
942	0.0653014
954	0.0393867
966	0.0266632
978	0.0171206
990	0.0101975
1002	0.00972972
1014	0.011975
1026	0.0109459
1038	0.0157172
1050	0.0203014
1062	0.0145946
1074	0.00907483
1086	0.0126299
1098	0.0152495
1110	0.0165592
1122	0.0253534
1134	0.0337734
1146	0.0540748
1158	0.275332
1170	0.185987
1182	0.0336798
1194	0.026289
1206	0.0222661
1218	0.0211434
1230	0.0261954
1242	0.0420997
1254	0.402567
1266	0.582754
1278	0.101975
1290	0.0109459
1302	0.0104782
1314	0.0162786
1326	0.0284407
1338	0.0300312
1350	0.0226403
1362	0.0256341
1374	0.0322765
1386	0.0162786
1398	0.0107588
1410	0.010291
1422	0.00823284
1434	0.0101975
1446	0.0110395
1458	0.0118815
1470	0.0194594
1482	0.0310603
1494	0.0413513
1506	0.0379833
1518	0.0369542
1530	0.134345
1542	0.116382
1554	0.0387318
1566	0.0962681
1578	0.186362
1590	0.198337
1602	0.147068
1614	0.0661434
1626	0.0497713
1638	0.0310603
1650	0.0131913
1662	0.0117879
1674	0.00879417
1686	0.00795217
1698	0.00626818
1710	0.0108524
1722	0.0177754
1734	0.018711
1746	0.0191788
1758	0.021237
1770	0.017869
1782	0.0113202
1794	0.0085135
1806	0.00645529
1818	0.00411642
1830	0.00523908
1842	0.00580041
1854	0.00430353
1866	0.0047713
1878	0.00608108
1890	0.00467775
1902	0.00486486
1914	0.00645529
1926	0.00608108
1938	0.00692307
1950	0.00533263
1962	0.00542619
1974	0.00392931
1986	0.00495841
1998	0.00598752
2010	0.00570685
2022	0.00514552
2034	0.0066424
2046	0.00402286
2058	0.00364864
2070	0.00551974
2082	0.00439708
2094	0.0029002
2106	0.00439708
2118	0.00439708
2130	0.00336798
2142	0.00383575
2154	0.00495841
2166	0.00383575
2178	0.00355509
2190	0.0056133
2202	0.00430353
2214	0.0029002
2226	0.00383575
2238	0.00392931
2250	0.00196466
2262	0.00327442
2274	0.00420997
2286	0.0027131
2298	0.00327442
2310	0.00402286
2322	0.00159043
2334	9.3555e-05
2346	0.00149688
2358	9.3555e-05
2370	9.3555e-05
2382	0.00364864
2394	0.0047713
2406	0.00420997
2418	0.0047713
2430	0.00542619
2442	0.00224532
2454	0.00215176
2466	0.00355509
2478	0.00261954
2490	0.0010291
2502	0.00243243
2514	0.0029002
2526	0.00140332
2538	0.00215176
2550	0.00280665
2562	0.00130977
2574	0.00177754
2586	0.00299376
2598	0.00130977
2610	0.00112266
2622	0.00355509
2634	0.00252598
2646	0.00093555
2658	0.00252598
2670	0.00233887
2682	0.00130977
2694	0.0018711
2706	0.00346153
2718	0.00196466
2730	0.00346153
2742	0.00598752
2754	0.00392931
2766	0.0018711
2778	0.00243243
2790	0.00346153
2802	0.00149688
2814	0.00392931
2826	0.00860706
2838	0.0118815
2850	0.00767151
2862	0.00598752
2874	0.00711018
2886	0.00645529
2898	0.0100104
2910	0.00944905
2922	0.00804573
2934	0.0124428
2946	0.015343
2958	0.0157172
2970	0.0181497
2982	0.0150624
2994	0.00870062
3006	0.00533263
3018	0.00711018
3030	0.00523908
3042	0.00495841
3054	0.0169335
3066	0.090187
3078	0.1887
3090	0.0932743
3102	0.080738
3114	0.00841995
3126	0.00570685
3138	0.00636174
3150	0.00346153
3162	0.00159043
3174	0.00318087
3186	0.00327442
3198	0.000841995
3210	0.00308731
3222	0.00420997
3234	0.00018711
3246	0.00112266
3258	0.00467775
3270	0.00130977
3282	0.000467775
3294	0.00467775
3306	0.00233887
3318	0.00093555
3330	0.00233887
3342	0.0027131
3354	0.00140332
3366	0.00261954
3378	0.00533263
3390	0.00224532
3402	0.00177754
3414	0.00449064
3426	0.00196466
3438	0.00149688
3450	0.0037422
3462	0.00308731
3474	0.00177754
3486	0.00355509
3498	0.00449064
3510	0.00159043
3522	0.00196466
3534	0.00505197
3546	0.00308731
3558	0.00252598
3570	0.00411642
3582	0.0027131
3594	0.00177754
3606	0.00327442
3618	0.00364864
3630	0.000841995
3642	0.0027131
3654	0.00626818
3666	0.00327442
3678	0.00205821
3690	0.00383575
3702	0.00196466
3714	0.0010291
3726	0.0029002
3738	0.00383575
3750	0.000467775
3762	0.00261954
3774	0.0045842
3786	0.00280665
3798	0.00205821
3810	0.00739084
3822	0.00841995
3834	0.00589396
3846	0.00841995
3858	0.00580041
3870	0.00121621
3882	0.00318087
3894	0.0056133
3906	0.00037422
3918	9.3555e-05
3930	0.00523908
3942	0.00196466
3954	9.3555e-05
3966	9.3555e-05
