Infrared Spectrum: 1-BROMO-1,1-DICHLORO ETHANE
Formula: C2 H3 Br Cl2
CAS: 676-92-6
State: SOLUTION (10% CCl4 FOR 5000-1330, 10% CS2 FOR 1330-625 CM^-^1)
Class: COBLENTZ
Instrument: Not specified, most likely a prism, grating, or hybrid spectrometer.
Sampling: TRANSMISSION
Path length: 0.0130 CM, 0.0129 CM
Resolution: 4
Origin: DOW CHEMICAL COMPANY
MICROMETERS	TRANSMITTANCE
2.027	0.873
2.0682	0.875
2.1094	0.875
2.15059	0.88
2.19179	0.88
2.23299	0.88
2.27419	0.885
2.31539	0.897
2.35658	0.894
2.39778	0.897
2.43898	0.895
2.48018	0.895
2.52138	0.906
2.56257	0.911
2.60377	0.918
2.64497	0.918
2.68617	0.921
2.72737	0.919
2.76856	0.918
2.80976	0.918
2.85096	0.909
2.89216	0.895
2.93336	0.894
2.97455	0.895
3.01575	0.899
3.05695	0.904
3.09815	0.909
3.13935	0.914
3.18054	0.921
3.22174	0.921
3.26294	0.921
3.30414	0.914
3.34534	0.88
3.38653	0.916
3.42773	0.928
3.46893	0.936
3.51013	0.94
3.55133	0.947
3.59252	0.952
3.63372	0.953
3.67492	0.952
3.71612	0.952
3.75732	0.957
3.79851	0.957
3.83971	0.957
3.88091	0.962
3.92211	0.96
3.96331	0.957
4.00451	0.965
4.0457	0.962
4.0869	0.947
4.1281	0.976
4.1693	0.969
4.2105	0.969
4.25169	0.967
4.29289	0.959
4.33409	0.953
4.37529	0.96
4.41649	0.976
4.45768	0.988
4.49888	0.993
4.54008	1
4.58128	1
4.62248	1
4.66367	0.994
4.70487	0.989
4.74607	0.969
4.78727	0.982
4.82847	1.001
4.86966	1
4.91086	0.998
4.95206	1
4.99326	1.001
5.03446	1.003
5.07565	1.003
5.11685	1.003
5.15805	1.003
5.19925	1.003
5.24045	0.941
5.28164	0.945
5.32284	0.941
5.36404	0.94
5.40524	0.935
5.44644	0.94
5.48763	0.943
5.52883	0.941
5.57003	0.941
5.61123	0.94
5.65243	0.943
5.69362	0.943
5.73482	0.938
5.77602	0.933
5.81722	0.93
5.85842	0.93
5.89961	0.93
5.94081	0.93
5.98201	0.924
6.02321	0.918
6.06441	0.909
6.1056	0.895
6.1468	0.883
6.188	0.843
6.2292	0.773
6.2704	0.672
6.31159	0.621
6.35279	0.59
6.39399	0.54
6.43519	0.45
6.47639	0.469
6.51758	0.569
6.55878	0.624
6.59998	0.686
6.64118	0.766
6.68238	0.813
6.72357	0.856
6.76477	0.872
6.80597	0.872
6.84717	0.846
6.88837	0.723
6.92956	0.614
6.97076	0.81
7.01196	0.824
7.05316	0.813
7.09436	0.819
7.13555	0.837
7.17675	0.825
7.21795	0.663
7.25915	0.581
7.30035	0.863
7.34154	0.878
7.38274	0.897
7.42394	0.899
7.46514	0.899
7.50634	0.899
7.54754	0.897
7.58873	0.895
7.62993	0.895
7.67113	0.895
7.71233	0.895
7.75353	0.895
7.79472	0.895
7.83592	0.895
7.87712	0.895
7.91832	0.895
7.95952	0.895
8.00071	0.895
8.04191	0.895
8.08311	0.897
8.12431	0.897
8.16551	0.895
8.2067	0.894
8.2479	0.894
8.2891	0.89
8.3303	0.887
8.3715	0.875
8.41269	0.873
8.45389	0.877
8.49509	0.878
8.53629	0.878
8.57749	0.875
8.61868	0.861
8.65988	0.853
8.70108	0.849
8.74228	0.853
8.78348	0.863
8.82467	0.861
8.86587	0.854
8.90707	0.851
8.94827	0.844
8.98947	0.831
9.03066	0.796
9.07186	0.745
9.11306	0.718
9.15426	0.697
9.19546	0.581
9.23665	0.281
9.27785	0.044
9.31905	0.023
9.36025	0.075
9.40145	0.254
9.44264	0.373
9.48384	0.592
9.52504	0.738
9.56624	0.79
9.60744	0.81
9.64863	0.819
9.68983	0.824
9.73103	0.831
9.77223	0.837
9.81343	0.848
9.85462	0.849
9.89582	0.849
9.93702	0.843
9.97822	0.843
10.0194	0.848
10.0606	0.856
10.1018	0.863
10.143	0.866
10.1842	0.872
10.2254	0.873
10.2666	0.877
10.3078	0.877
10.349	0.877
10.3902	0.877
10.4314	0.877
10.4726	0.877
10.5138	0.88
10.555	0.883
10.5962	0.887
10.6374	0.89
10.6786	0.89
10.7198	0.89
10.761	0.89
10.8022	0.889
10.8434	0.889
10.8846	0.889
10.9258	0.887
10.967	0.887
11.0082	0.887
11.0494	0.887
11.0906	0.885
11.1318	0.88
11.173	0.866
11.2142	0.858
11.2554	0.841
11.2966	0.822
11.3378	0.805
11.379	0.79
11.4201	0.774
11.4613	0.762
11.5025	0.747
11.5437	0.733
11.5849	0.725
11.6261	0.708
11.6673	0.694
11.7085	0.692
11.7497	0.699
11.7909	0.725
11.8321	0.757
11.8733	0.788
11.9145	0.803
11.9557	0.815
11.9969	0.825
12.0381	0.832
12.0793	0.836
12.1205	0.832
12.1617	0.831
12.2029	0.829
12.2441	0.827
12.2853	0.829
12.3265	0.831
12.3677	0.827
12.4089	0.825
12.4501	0.824
12.4913	0.824
12.5325	0.822
12.5737	0.819
12.6149	0.815
12.6561	0.812
12.6973	0.808
12.7385	0.802
12.7797	0.8
12.8209	0.798
12.8621	0.798
12.9033	0.795
12.9445	0.793
12.9857	0.788
13.0269	0.783
13.0681	0.783
13.1093	0.784
13.1505	0.779
13.1917	0.776
13.2329	0.767
13.2741	0.766
13.3153	0.764
13.3565	0.761
13.3977	0.755
13.4389	0.747
13.4801	0.74
13.5212	0.732
13.5624	0.716
13.6036	0.699
13.6448	0.684
13.686	0.655
13.7272	0.614
13.7684	0.568
13.8096	0.515
13.8508	0.44
13.892	0.319
13.9332	0.184
13.9744	0.085
14.0156	0.023
14.0568	0.005
14.098	0.005
14.1392	0.018
14.1804	0.054
14.2216	0.116
14.2628	0.177
14.304	0.24
14.3452	0.293
14.3864	0.329
14.4276	0.349
14.4688	0.363
14.51	0.37
14.5512	0.375
14.5924	0.366
14.6336	0.354
14.6748	0.331
14.716	0.276
14.7572	0.22
14.7984	0.156
14.8396	0.097
14.8808	0.066
14.922	0.047
14.9632	0.042
15.0044	0.042
15.0456	0.042
15.0868	0.044
15.128	0.068
15.1692	0.119
15.2104	0.163
15.2516	0.22
15.2928	0.274
15.334	0.31
15.3752	0.337
15.4164	0.361
15.4576	0.38
15.4988	0.394
15.54	0.407
15.5811	0.416
15.6223	0.423
15.6635	0.428
15.7047	0.43
15.7459	0.435
15.7871	0.436
15.8283	0.436
15.8695	0.438
15.9107	0.438
