Infrared Spectrum: 2,4-Hexadiene
Formula: C 6 H 10
CAS: 592-46-1
State: gas
Origin: Sadtler Research Labs Under US-EPA Contract
1/CM	ABSORBANCE
450	0.0226213
462	0.0107863
474	0
486	0.00202243
498	0.00059924
510	0.00337073
522	0.00426959
534	0.0116852
546	0.00666655
558	0.00509354
570	0.00419468
582	0.0177525
594	0.0374525
606	0.0317597
618	0.00966275
630	0.0107114
642	0.0164042
654	0.0286886
666	0.0544559
678	0.103743
690	0.154829
702	0.189884
714	0.131683
726	0.0759537
738	0.0332578
750	0.0176776
762	0.0147563
774	0.0167038
786	0.0248685
798	0.0504111
810	0.0761035
822	0.0898111
834	0.0656917
846	0.0381266
858	0.0256175
870	0.0253179
882	0.0261418
894	0.0349057
906	0.0776765
918	0.221569
930	0.345537
942	0.332653
954	0.262617
966	0.304639
978	0.356922
990	0.271905
1002	0.185914
1014	0.103144
1026	0.058351
1038	0.0388757
1050	0.0280145
1062	0.0224715
1074	0.0203742
1086	0.0182768
1098	0.0159548
1110	0.0156551
1122	0.0204491
1134	0.0243441
1146	0.0202244
1158	0.0166289
1170	0.0143069
1182	0.0149061
1194	0.0176027
1206	0.0223966
1218	0.0320593
1230	0.0338571
1242	0.0274901
1254	0.0222468
1266	0.0222468
1278	0.026816
1290	0.0328084
1302	0.0337073
1314	0.0337073
1326	0.0319095
1338	0.0355799
1350	0.048089
1362	0.0764031
1374	0.110859
1386	0.114455
1398	0.115429
1410	0.128013
1422	0.14157
1434	0.145615
1446	0.207262
1458	0.187937
1470	0.137001
1482	0.0837438
1494	0.0585757
1506	0.049662
1518	0.0464411
1530	0.0438943
1542	0.0396247
1554	0.0345312
1566	0.029213
1578	0.0254677
1590	0.0226962
1602	0.0263666
1614	0.0347559
1626	0.0517594
1638	0.0710099
1650	0.0841932
1662	0.0719837
1674	0.0410479
1686	0.0276399
1698	0.0240445
1710	0.0223966
1722	0.0238947
1734	0.0247936
1746	0.0223966
1758	0.0196251
1770	0.0208236
1782	0.0342316
1794	0.0432951
1806	0.0325088
1818	0.0180521
1830	0.014981
1842	0.0194753
1854	0.0220221
1866	0.0152057
1878	0.0074905
1890	0.00539316
1902	0.00569278
1914	0.00561788
1926	0.00501864
1938	0.00524335
1950	0.00689126
1962	0.0108612
1974	0.0148312
1986	0.0135578
1998	0.0120597
2010	0.0136327
2022	0.0105616
2034	0.00554297
2046	0.00367035
2058	0.00337073
2070	0.00352053
2082	0.0029962
2094	0.00269658
2106	0.00269658
2118	0.00262167
2130	0.0029962
2142	0.00269658
2154	0.00307111
2166	0.00307111
2178	0.00277149
2190	0.00329582
2202	0.00501864
2214	0.00494373
2226	0.00374525
2238	0.00367035
2250	0.00314601
2262	0.00232205
2274	7.4905e-05
2286	0.00157301
2298	0.00531826
2310	0.00539316
2322	0.00329582
2334	0.00396996
2346	0.00344563
2358	0.00471902
2370	0.00704107
2382	0.00981256
2394	0.00913841
2406	0.00779012
2418	0.00726579
2430	0.00659164
2442	0.00689126
2454	0.00734069
2466	0.0090635
2478	0.0089886
2490	0.0075654
2502	0.00614221
2514	0.00569278
2526	0.00666655
2538	0.00711598
2550	0.00636692
2562	0.00531826
2574	0.00524335
2586	0.00494373
2598	0.00479392
2610	0.0045692
2622	0.00404487
2634	0.00404487
2646	0.00404487
2658	0.0044194
2670	0.0044194
2682	0.00539316
2694	0.00719088
2706	0.0090635
2718	0.0125091
2730	0.0267411
2742	0.0405236
2754	0.0329582
2766	0.0202244
2778	0.021273
2790	0.0248685
2802	0.0285388
2814	0.0348308
2826	0.04734
2838	0.0695867
2850	0.125016
2862	0.316174
2874	0.415648
2886	0.371454
2898	0.364488
2910	0.416547
2922	0.682759
2934	0.74905
2946	0.546057
2958	0.411228
2970	0.367858
2982	0.344039
2994	0.351979
3006	0.458868
3018	0.680062
3030	0.713545
3042	0.628453
3054	0.36254
3066	0.182244
3078	0.0996237
3090	0.0623959
3102	0.0452426
3114	0.0374525
3126	0.0328833
3138	0.0267411
3150	0.0188012
3162	0.0133331
3174	0.0101122
3186	0.00771522
3198	0.00681636
3210	0.00644183
3222	0.00621712
3234	0.00561788
3246	0.00471902
3258	0.00374525
3270	0.00359544
3282	0.00307111
3294	0.00254677
3306	0.00217225
3318	0.00179772
3330	0.00172281
3342	0.00217225
3354	0.00224715
3366	0.00254677
3378	0.00307111
3390	0.00322091
3402	0.00269658
3414	0.00179772
3426	0.00254677
3438	0.00254677
3450	0.00194753
3462	0.00217225
3474	0.00217225
3486	0.00209734
3498	0.00187263
3510	0.00134829
3522	0.00142319
3534	0.00074905
3546	0.000224715
3558	0.00112357
3570	0.000524335
3582	0.00119848
3594	0.00029962
3606	0.000674145
3618	0.00119848
3630	0.00194753
3642	0.00127339
3654	0.00112357
3666	0.000524335
3678	0.00142319
3690	0.00127339
3702	0
3714	0.000674145
3726	0
3738	0
3750	0.00104867
3762	0
3774	0.000224715
3786	0.00044943
3798	0.00029962
3810	0.000674145
3822	0.00104867
3834	0.00059924
3846	0.00134829
3858	0.00112357
3870	0.00127339
3882	0.00029962
3894	0.00104867
3906	0.000823955
3918	0.0014981
3930	0.00254677
3942	0.00209734
3954	0.00194753
3966	0.00134829
