Infrared Spectrum: n-Amylamine
Formula: C 5 H 13 N
CAS: 110-58-7
State: gas
Instrument: HP-GC/MS/IRD
Origin: NIST Mass Spectrometry Data Center
1/CM	ABSORBANCE
550	0.0002992
562	0.0001445
574	0.0002278
586	0.0003196
598	0.000459
610	0.0004063
622	0.0005865
634	0.0003995
646	0.0006528
658	0.0008483
670	0.0008364
682	0.0008517
694	0.0011356
706	0.0014926
718	0.0019125
730	0.0026877
742	0.0034901
754	0.0042976
766	0.0046954
778	0.0046937
790	0.0037451
802	0.0024259
814	0.0015674
826	0.0012818
838	0.0010098
850	0.0008687
862	0.0008194
874	0.0006477
886	0.0005865
898	0.0005763
910	0.0005525
922	0.0004539
934	0.0004437
946	0.0004199
958	0.0004556
970	0.0005202
982	0.0006494
994	0.0006426
1006	0.0007038
1018	0.00068
1030	0.0006953
1042	0.0009622
1054	0.0012648
1066	0.0014824
1078	0.0014042
1090	0.0010591
1102	0.0007888
1114	0.000493
1126	0.0003468
1138	0.000204
1150	0.0001972
1162	6.8e-05
1174	6.63e-05
1186	6.63e-05
1198	4.93e-05
1210	7.99e-05
1222	7.82e-05
1234	0.000119
1246	0.0001105
1258	0.00017
1270	0.000204
1282	0.0002499
1294	0.0002788
1306	0.0002941
1318	0.000374
1330	0.0004726
1342	0.0005865
1354	0.0007701
1366	0.000986
1378	0.0012478
1390	0.0012325
1402	0.0008466
1414	0.0006222
1426	0.0006868
1438	0.0009758
1450	0.0014178
1462	0.0016218
1474	0.0014433
1486	0.0010285
1498	0.0006103
1510	0.0003961
1522	0.00034
1534	0.0003247
1546	0.0003332
1558	0.0003213
1570	0.0004148
1582	0.0005355
1594	0.0007548
1606	0.0011645
1618	0.0014807
1630	0.0013974
1642	0.0009333
1654	0.0005287
1666	0.0003774
1678	0.0002754
1690	0.0002227
1702	0.0001819
1714	0.0001717
1726	0.0001972
1738	0.0001785
1750	0.0001972
1762	0.0001649
1774	0.0001445
1786	0.0002006
1798	0.0001751
1810	0.0001904
1822	0.0002006
1834	0.0002261
1846	0.0001887
1858	0.0002074
1870	0.0001683
1882	0.0001445
1894	0.0001734
1906	0.0001921
1918	0.0001819
1930	0.0001785
1942	0.0001462
1954	0.0001564
1966	0.0001632
1978	0.0001513
1990	0.0001428
2002	0.0001802
2014	0.0001649
2026	0.000153
2038	0.0001819
2050	0.0001836
2062	0.0001581
2074	0.0001853
2086	0.0001887
2098	0.0001547
2110	0.0001598
2122	0.0001581
2134	0.0001649
2146	0.0001445
2158	0.0001836
2170	0.0001938
2182	0.00017
2194	0.0001785
2206	0.0001802
2218	0.0001632
2230	0.0001598
2242	0.0001853
2254	0.0001819
2266	0.0001649
2278	0.0001547
2290	0.0001496
2302	0.0001666
2314	0.0001819
2326	0.0001649
2338	0.00017
2350	0.000187
2362	0.000153
2374	0.0001853
2386	0.0001921
2398	0.0001564
2410	0.0001768
2422	0.0002006
2434	0.0001836
2446	0.0001666
2458	0.0001904
2470	0.0001921
2482	0.0001955
2494	0.0001853
2506	0.000221
2518	0.0002193
2530	0.000238
2542	0.0002142
2554	0.0002856
2566	0.0002822
2578	0.0003009
2590	0.0003162
2602	0.0003026
2614	0.00034
2626	0.0003332
2638	0.0003502
2650	0.0004284
2662	0.0004488
2674	0.0004811
2686	0.0005542
2698	0.0005321
2710	0.0005287
2722	0.0006341
2734	0.0007497
2746	0.0008024
2758	0.0008432
2770	0.0008585
2782	0.0009112
2794	0.0010659
2806	0.0013668
2818	0.0018343
2830	0.0027574
2842	0.0044455
2854	0.0064498
2866	0.0078404
2878	0.0083844
2890	0.0081141
2902	0.0087941
2914	0.0120292
2926	0.0157165
2938	0.0168504
2950	0.0145197
2962	0.0122757
2974	0.0093602
2986	0.0052683
2998	0.0025466
3010	0.0015028
3022	0.0010897
3034	0.0008636
3046	0.0006902
3058	0.0005984
3070	0.0005049
3082	0.0004148
3094	0.0004284
3106	0.0004369
3118	0.0003927
3130	0.0003468
3142	0.0003519
3154	0.0003808
3166	0.0003825
3178	0.0002805
3190	0.0003196
3202	0.0003434
3214	0.000272
3226	0.0002567
3238	0.000255
3250	0.0002346
3262	0.0002516
3274	0.0002703
3286	0.0002873
3298	0.0002346
3310	0.0002822
3322	0.0002856
3334	0.000374
3346	0.0003604
3358	0.0003451
3370	0.0003417
3382	0.0002431
3394	0.000221
3406	0.0003009
3418	0.0002686
3430	0.000289
3442	0.0002482
3454	0.0002193
3466	0.0001768
3478	0.0002159
3490	0.0001581
3502	0.000272
3514	0.000221
3526	0.0001989
3538	0.0002635
3550	0.000221
3562	0.0001496
3574	0.0002261
3586	0.0001802
3598	0.0002074
3610	0.0002652
3622	0.0001921
3634	0.0002295
3646	0.0002227
3658	0.0002754
3670	0.0002159
3682	0.0003638
3694	0.0002907
3706	0.0003043
3718	0.0002108
3730	0.0002244
3742	0.0002142
3754	0.000204
3766	0.0002771
3778	0.0002788
3790	0.0002652
3802	0.0003196
3814	0.000306
3826	0.0002397
3838	0.0002482
