Infrared Spectrum: ACETAMIDE
Formula: C2 H5 N O
CAS: 60-35-5
State: SOLID (SPLIT MULL, FLUOROLUBE FOR 3800-1340 AND NUJOL FOR 1340-400 CM ^-^1)
Melting point: 82 C
Boiling point: 221 C
Class: COBLENTZ III
Instrument: DOW KBr FOREPRISM-GRATING
Instrument parameters: BLAZED AT 3.5, 12.0, 20.0 MICRON, CHANGED AT 5.0, 7.5, 14.9 MICRON
Sampling: TRANSMISSION
Resolution: 4
Origin: DOW CHEMICAL COMPANY
1/CM	TRANSMITTANCE
383.172	0.866
392.552	0.866
401.933	0.864
411.313	0.863
420.693	0.862
430.074	0.862
439.454	0.854
448.835	0.838
458.215	0.7631
467.595	0.4534
476.976	0.716
486.356	0.796
495.736	0.809
505.117	0.819
514.497	0.827
523.877	0.831
533.258	0.839
542.638	0.836
552.018	0.832
561.399	0.816
570.779	0.784
580.16	0.562
589.54	0.456
598.92	0.692
608.301	0.756
617.681	0.746
627.061	0.726
636.442	0.709
645.822	0.677
655.202	0.631
664.583	0.558
673.963	0.493
683.343	0.41
692.724	0.33
702.104	0.27
711.485	0.239
720.865	0.24
730.245	0.287
739.626	0.374
749.006	0.487
758.386	0.591
767.767	0.65
777.147	0.697
786.527	0.726
795.908	0.737
805.288	0.738
814.669	0.756
824.049	0.795
833.429	0.832
842.81	0.852
852.19	0.864
861.57	0.867
870.951	0.832
880.331	0.718
889.711	0.879
899.092	0.902
908.472	0.915
917.852	0.918
927.233	0.919
936.613	0.914
945.994	0.908
955.374	0.899
964.754	0.888
974.135	0.876
983.515	0.872
992.895	0.856
1002.28	0.813
1011.66	0.809
1021.04	0.846
1030.42	0.847
1039.8	0.824
1049.18	0.793
1058.56	0.813
1067.94	0.832
1077.32	0.834
1086.7	0.834
1096.08	0.834
1105.46	0.834
1114.84	0.827
1124.22	0.82
1133.6	0.789
1142.98	0.722
1152.36	0.348
1161.74	0.665
1171.12	0.761
1180.5	0.792
1189.88	0.8
1199.26	0.808
1208.64	0.803
1218.02	0.797
1227.4	0.795
1236.78	0.787
1246.17	0.776
1255.55	0.757
1264.93	0.741
1274.31	0.725
1283.69	0.71
1293.07	0.694
1302.45	0.669
1311.83	0.647
1321.21	0.627
1330.59	0.59
1339.97	0.448
1349.35	0.349
1358.73	0.31
1368.11	0.398
1377.49	0.349
1386.87	0.281
1396.25	0.231
1405.63	0.236
1415.01	0.294
1424.39	0.354
1433.77	0.419
1443.15	0.459
1452.53	0.459
1461.91	0.443
1471.29	0.484
1480.67	0.52
1490.05	0.528
1499.43	0.531
1508.82	0.531
1518.2	0.526
1527.58	0.512
1536.96	0.488
1546.34	0.448
1555.72	0.39
1565.1	0.33
1574.48	0.281
1583.86	0.257
1593.24	0.244
1602.62	0.25
1612	0.261
1621.38	0.244
1630.76	0.215
1640.14	0.202
1649.52	0.22
1658.9	0.24
1668.28	0.167
1677.66	0.097
1687.04	0.091
1696.42	0.1801
1705.8	0.3461
1715.18	0.552
1724.56	0.65
1733.94	0.673
1743.32	0.713
1752.7	0.808
1762.08	0.858
1771.47	0.879
1780.85	0.892
1790.23	0.904
1799.61	0.914
1808.99	0.923
1818.37	0.931
1827.75	0.935
1837.13	0.941
1846.51	0.942
1855.89	0.938
1865.27	0.937
1874.65	0.937
1884.03	0.946
1893.41	0.947
1902.79	0.951
1912.17	0.949
1921.55	0.95
1930.93	0.949
1940.31	0.949
1949.69	0.951
1959.07	0.947
1968.45	0.941
1977.83	0.937
1987.21	0.934
1996.59	0.921
2005.97	0.945
2015.35	0.97
2024.73	0.965
2034.12	0.966
2043.5	0.967
2052.88	0.965
2062.26	0.964
2071.64	0.962
2081.02	0.9585
2090.4	0.958
2099.78	0.9545
2109.16	0.953
2118.54	0.948
2127.92	0.943
2137.3	0.94
2146.68	0.931
2156.06	0.927
2165.44	0.927
2174.82	0.926
2184.2	0.926
2193.58	0.922
2202.96	0.921
2212.34	0.9175
2221.72	0.914
2231.1	0.903
2240.48	0.895
2249.86	0.8884
2259.24	0.878
2268.62	0.871
2278	0.871
2287.38	0.867
2296.77	0.8589
2306.15	0.8465
2315.53	0.8551
2324.91	0.866
2334.29	0.868
2343.67	0.868
2353.05	0.871
2362.43	0.871
2371.81	0.87
2381.19	0.871
2390.57	0.872
2399.95	0.8689
2409.33	0.868
2418.71	0.871
2428.09	0.87
2437.47	0.87
2446.85	0.868
2456.23	0.866
2465.61	0.863
2474.99	0.8595
2484.37	0.858
2493.75	0.856
2503.13	0.855
2512.51	0.854
2521.89	0.855
2531.27	0.8544
2540.65	0.851
2550.03	0.848
2559.42	0.847
2568.8	0.8476
2578.18	0.85
2587.56	0.85
2596.94	0.8479
2606.32	0.843
2615.7	0.84
2625.08	0.838
2634.46	0.836
2643.84	0.835
2653.22	0.8308
2662.6	0.8234
2671.98	0.8149
2681.36	0.8084
2690.74	0.807
2700.12	0.8034
2709.5	0.8
2718.88	0.793
2728.26	0.7869
2737.64	0.7764
2747.02	0.7679
2756.4	0.7583
2765.78	0.7479
2775.16	0.7377
2784.54	0.7248
2793.92	0.7071
2803.3	0.6766
2812.69	0.6439
2822.07	0.6656
2831.45	0.698
2840.83	0.7242
2850.21	0.7312
2859.59	0.732
2868.97	0.73
2878.35	0.7289
2887.73	0.722
2897.11	0.7139
2906.49	0.7028
2915.87	0.6873
2925.25	0.6602
2934.63	0.653
2944.01	0.6504
2953.39	0.635
2962.77	0.6196
2972.15	0.6046
2981.53	0.5855
2990.91	0.5656
3000.29	0.5468
3009.67	0.5238
3019.05	0.5012
3028.43	0.4804
3037.81	0.4578
3047.19	0.4353
3056.57	0.4044
3065.95	0.3765
3075.34	0.343
3084.72	0.3146
3094.1	0.2834
3103.48	0.2505
3112.86	0.2188
3122.24	0.1875
3131.62	0.1551
3141	0.1366
3150.38	0.1258
3159.76	0.125
3169.14	0.1342
3178.52	0.1476
3187.9	0.1694
3197.28	0.1968
3206.66	0.2304
3216.04	0.2655
3225.42	0.2894
3234.8	0.3011
3244.18	0.306
3253.56	0.3048
3262.94	0.2998
3272.32	0.2899
3281.7	0.2798
3291.08	0.2669
3300.46	0.2558
3309.84	0.2458
3319.22	0.242
3328.6	0.24
3337.99	0.2413
3347.37	0.2443
3356.75	0.2523
3366.13	0.2661
3375.51	0.2944
3384.89	0.3379
3394.27	0.3968
3403.65	0.4843
3413.03	0.5987
3422.41	0.6702
3431.79	0.7356
3441.17	0.7961
3450.55	0.8378
3459.93	0.8677
3469.31	0.8926
3478.69	0.9103
3488.07	0.9226
3497.45	0.9331
3506.83	0.941
3516.21	0.9461
3525.59	0.949
3534.97	0.953
3544.35	0.9517
3553.73	0.95
3563.11	0.9523
3572.49	0.953
3581.87	0.953
3591.25	0.951
3600.64	0.95
3610.02	0.9487
3619.4	0.946
3628.78	0.943
3638.16	0.942
3647.54	0.9378
3656.92	0.935
3666.3	0.9327
3675.68	0.931
3685.06	0.929
3694.44	0.9277
3703.82	0.925
3713.2	0.923
3722.58	0.922
3731.96	0.921
3741.34	0.919
3750.72	0.918
3760.1	0.9167
3769.48	0.915
3778.86	0.9148
3788.24	0.912
