Infrared Spectrum: Acetamide
Formula: C 2 H 5 N O
CAS: 60-35-5
State: gas
Origin: Sadtler Research Labs Under US-EPA Contract
1/CM	ABSORBANCE
450	0.0215686
462	0.0251201
474	0.0362076
486	0.0330026
498	0.0464289
510	0.0403654
522	0.0366407
534	0.0440901
546	0.0388928
558	0.0472084
570	0.0546579
582	0.0491141
594	0.0498937
606	0.0475549
618	0.0813371
630	0.0762265
642	0.0375935
654	0.0237342
666	0.0206158
678	0.00762265
690	0.0138594
702	0.0317899
714	0.0501536
726	0.0508465
738	0.0688637
750	0.0744074
762	0.0569966
774	0.0499803
786	0.0453894
798	0.0394992
810	0.0291047
822	0.0252067
834	0.0304906
846	0.0338688
858	0.0323963
870	0.0336956
882	0.0343019
894	0.02538
906	0.0222616
918	0.0192299
930	0.0178439
942	0.0284117
954	0.0330026
966	0.0343019
978	0.0335223
990	0.0215686
1002	0.0119537
1014	0.0086621
1026	0.011434
1038	0.0185369
1050	0.0129065
1062	0.0154185
1074	0.0129065
1086	0.00840224
1098	0.00580361
1110	0.0102213
1122	0.0108276
1134	0.0116072
1146	0.00987479
1158	0.00857548
1170	0.00355146
1182	0.00147256
1194	0.00129931
1206	0.00320498
1218	0.00987479
1230	0.0181038
1242	0.0264194
1254	0.0344752
1266	0.0582093
1278	0.113387
1290	0.218631
1302	0.275368
1314	0.27892
1326	0.310796
1338	0.233184
1350	0.131231
1362	0.135129
1374	0.162934
1386	0.182684
1398	0.148122
1410	0.11304
1422	0.0686905
1434	0.0362942
1446	0.0240806
1458	0.0239074
1470	0.0170643
1482	0.018277
1494	0.015765
1506	0.0177573
1518	0.0117805
1530	0.0134263
1542	0.0305772
1554	0.0505
1566	0.1133
1578	0.173069
1590	0.187361
1602	0.179479
1614	0.151414
1626	0.084109
1638	0.0506733
1650	0.0453894
1662	0.0480747
1674	0.05691
1686	0.0799512
1698	0.144051
1710	0.343799
1722	0.672179
1734	0.817356
1746	0.705788
1758	0.828616
1770	0.462036
1782	0.130018
1794	0.0369005
1806	0.015765
1818	0.00978817
1830	0.00926845
1842	0.010048
1854	0.011434
1866	0.00926845
1878	0.00918183
1890	0.00762265
1902	0.00684306
1914	0.00727616
1926	0.00744941
1938	0.00762265
1950	0.00788251
1962	0.00649658
1974	0.00615009
1986	0.00589023
1998	0.00545712
2010	0.00571699
2022	0.0053705
2034	0.00502402
2046	0.00554374
2058	0.00528388
2070	0.00545712
2082	0.00563037
2094	0.00589023
2106	0.00597685
2118	0.00640995
2130	0.00606347
2142	0.00606347
2154	0.00649658
2166	0.00675644
2178	0.00710292
2190	0.00753603
2202	0.0070163
2214	0.00753603
2226	0.00718954
2238	0.00814237
2250	0.00727616
2262	0.00753603
2274	0.00796913
2286	0.00909521
2298	0.010741
2310	0.0116938
2322	0.0108276
2334	0.0130798
2346	0.0131664
2358	0.0135129
2370	0.0119537
2382	0.010048
2394	0.00684306
2406	0.00692968
2418	0.00649658
2430	0.00692968
2442	0.00666982
2454	0.00649658
2466	0.00597685
2478	0.00571699
2490	0.0049374
2502	0.00502402
2514	0.00606347
2526	0.00554374
2538	0.00563037
2550	0.00649658
2562	0.00615009
2574	0.00623671
2586	0.00545712
2598	0.00597685
2610	0.00563037
2622	0.00571699
2634	0.00528388
2646	0.00528388
2658	0.00580361
2670	0.00632333
2682	0.00632333
2694	0.00589023
2706	0.00615009
2718	0.00649658
2730	0.00649658
2742	0.00640995
2754	0.00623671
2766	0.00615009
2778	0.00606347
2790	0.00710292
2802	0.00718954
2814	0.00736278
2826	0.0086621
2838	0.00918183
2850	0.0111741
2862	0.0127333
2874	0.0136861
2886	0.0152453
2898	0.0174108
2910	0.0227813
2922	0.029018
2934	0.0310103
2946	0.0330892
2958	0.0326561
2970	0.0277187
2982	0.0244271
2994	0.0190566
3006	0.0212221
3018	0.0252067
3030	0.0240806
3042	0.0255532
3054	0.0238208
3066	0.0218285
3078	0.0186235
3090	0.0152453
3102	0.0135129
3114	0.0106544
3126	0.00935507
3138	0.0101347
3150	0.00840224
3162	0.00892196
3174	0.00944169
3186	0.00857548
3198	0.0086621
3210	0.00814237
3222	0.00666982
3234	0.0065832
3246	0.00632333
3258	0.00615009
3270	0.00580361
3282	0.00692968
3294	0.0070163
3306	0.00675644
3318	0.00892196
3330	0.00900858
3342	0.00883534
3354	0.00796913
3366	0.00874872
3378	0.0130798
3390	0.0207024
3402	0.0323963
3414	0.0479014
3426	0.06947
3438	0.0731947
3450	0.06332
3462	0.0603748
3474	0.0388062
3486	0.0252933
3498	0.0251201
3510	0.0341287
3522	0.0381999
3534	0.0516261
3546	0.0684306
3558	0.065139
3570	0.0640995
3582	0.0526656
3594	0.0339554
3606	0.0136861
3618	0.00935507
3630	0.010048
3642	0.00710292
3654	0.00822899
3666	0.00632333
3678	0.0101347
3690	0.00770927
3702	0.00597685
3714	0.00848886
3726	0.00796913
3738	0.00970155
3750	0.00970155
3762	0.00710292
3774	0.00649658
3786	0.00736278
3798	0.00770927
3810	0.00883534
3822	0.0103079
3834	0.00892196
3846	0.0102213
3858	0.0110009
3870	0.00952831
3882	0.0105678
3894	0.0113474
3906	0.0115206
3918	0.0106544
3930	0.00727616
3942	0.00944169
3954	0.00597685
3966	0.00632333
