Infrared Spectrum: N,N-Dimethylthioacetamide
Formula: C 4 H 9 N S
CAS: 631-67-4
State: gas
Origin: EPA-IR VAPOR PHASE LIBRARY
1/CM	ABSORBANCE
551.7	0.0001777
563.274	0.0001695
574.848	0.0002533
586.421	0.0001021
597.995	0.0004823
609.569	0.0007939
621.143	0.00118
632.717	0.00144
644.291	0.00178
655.864	0.00185
667.438	0.00168
679.012	0.0005295
690.586	0.0003163
702.16	0.0002779
713.734	0.0004912
725.307	0.0005559
736.881	0.0008154
748.455	0.00109
760.029	0.00114
771.603	0.00106
783.177	0.0008238
794.75	0.0006865
806.324	0.0006926
817.898	0.00109
829.472	0.00156
841.046	0.00263
852.619	0.00579
864.193	0.00905
875.767	0.00846
887.341	0.00411
898.915	0.00177
910.489	0.0017
922.062	0.00196
933.636	0.00237
945.21	0.00331
956.784	0.0045
968.358	0.00684
979.932	0.0118
991.505	0.02378
1003.08	0.0399
1014.65	0.04238
1026.23	0.03192
1037.8	0.01839
1049.37	0.01446
1060.95	0.01141
1072.52	0.00884
1084.1	0.00715
1095.67	0.00697
1107.24	0.00783
1118.82	0.01
1130.39	0.0148
1141.97	0.02028
1153.54	0.0266
1165.11	0.03396
1176.69	0.04182
1188.26	0.04009
1199.83	0.02916
1211.41	0.01824
1222.98	0.01396
1234.56	0.01312
1246.13	0.01407
1257.7	0.02009
1269.28	0.04034
1280.85	0.07139
1292.42	0.0816
1304	0.0597
1315.57	0.02554
1327.15	0.02003
1338.72	0.02583
1350.29	0.04301
1361.87	0.06983
1373.44	0.10385
1385.02	0.11746
1396.59	0.10461
1408.16	0.07747
1419.74	0.05313
1431.31	0.0391
1442.88	0.03003
1454.46	0.03362
1466.03	0.04861
1477.61	0.06709
1489.18	0.07405
1500.75	0.06598
1512.33	0.05542
1523.9	0.0467
1535.48	0.03795
1547.05	0.02845
1558.62	0.01957
1570.2	0.01293
1581.77	0.0087
1593.34	0.00622
1604.92	0.00481
1616.49	0.0039
1628.07	0.00338
1639.64	0.00301
1651.21	0.00301
1662.79	0.00317
1674.36	0.00294
1685.93	0.00219
1697.51	0.00151
1709.08	0.00124
1720.66	0.00121
1732.23	0.00114
1743.8	0.00101
1755.38	0.0008579
1766.95	0.000629
1778.53	0.0005434
1790.1	0.000515
1801.67	0.0005484
1813.25	0.0005297
1824.82	0.0005741
1836.39	0.0006663
1847.97	0.0006836
1859.54	0.0006919
1871.12	0.0006961
1882.69	0.0006186
1894.26	0.0005881
1905.84	0.0005001
1917.41	0.0004544
1928.99	0.0005325
1940.56	0.0006644
1952.13	0.0006505
1963.71	0.0005676
1975.28	0.0005306
1986.85	0.0006117
1998.43	0.0008404
2010	0.00111
2021.58	0.0013
2033.15	0.00139
2044.72	0.00126
2056.3	0.00106
2067.87	0.0007913
2079.44	0.0005847
2091.02	0.0005241
2102.59	0.0005349
2114.17	0.0006253
2125.74	0.0008768
2137.31	0.00104
2148.89	0.0009938
2160.46	0.0008399
2172.04	0.0007566
2183.61	0.0006859
2195.18	0.0006032
2206.76	0.0005026
2218.33	0.0003819
2229.9	0.00039
2241.48	0.0004051
2253.05	0.0005039
2264.63	0.0005702
2276.2	0.0005661
2287.77	0.0006076
2299.35	0.0006546
2310.92	0.0006972
2322.5	0.0006204
2334.07	0.0005916
2345.64	0.0005659
2357.22	0.0005596
2368.79	0.0005105
2380.36	0.0005053
2391.94	0.000477
2403.51	0.0004582
2415.09	0.0004195
2426.66	0.0004505
2438.23	0.0004136
2449.81	0.0004549
2461.38	0.0004171
2472.96	0.0004868
2484.53	0.0004895
2496.1	0.0004458
2507.68	0.0005094
2519.25	0.0006053
2530.82	0.0006144
2542.4	0.0005988
2553.97	0.0007798
2565.55	0.000984
2577.12	0.0009664
2588.69	0.0008375
2600.27	0.0006638
2611.84	0.0005409
2623.41	0.00055
2634.99	0.000648
2646.56	0.0008126
2658.14	0.000944
2669.71	0.00102
2681.28	0.00101
2692.86	0.00113
2704.43	0.00123
2716.01	0.00147
2727.58	0.00158
2739.15	0.00174
2750.73	0.00222
2762.3	0.00278
2773.87	0.00339
2785.45	0.0042
2797.02	0.00574
2808.6	0.00776
2820.17	0.00874
2831.74	0.00904
2843.32	0.01107
2854.89	0.01493
2866.47	0.0191
2878.04	0.02284
2889.61	0.02648
2901.19	0.03175
2912.76	0.04021
2924.33	0.04968
2935.91	0.05482
2947.48	0.05102
2959.06	0.0408
2970.63	0.0277
2982.2	0.01809
2993.78	0.01286
3005.35	0.01116
3016.92	0.01128
3028.5	0.01166
3040.07	0.011
3051.65	0.00935
3063.22	0.00733
3074.79	0.00545
3086.37	0.0041
3097.94	0.00333
3109.52	0.00286
3121.09	0.00254
3132.66	0.00208
3144.24	0.00167
3155.81	0.00122
3167.38	0.00101
3178.96	0.0008108
3190.53	0.000662
3202.11	0.0005716
3213.68	0.0004686
3225.25	0.0003899
3236.83	0.0004246
3248.4	0.0003261
3259.98	0.0002553
3271.55	0.0002636
3283.12	0.0002616
3294.7	0.0001882
3306.27	0.0002326
3317.84	0.0003366
3329.42	0.0002268
3340.99	0.0002573
3352.57	0.0002587
3364.14	0.000164
3375.71	0.0001731
3387.29	0.0001711
3398.86	0.000265
3410.43	0.000239
3422.01	0.0002397
3433.58	0.0002956
3445.16	0.0003523
3456.73	0.0003157
3468.3	0.0002207
3479.88	0.0003044
3491.45	0.0002076
3503.03	0.000146
3514.6	0.0002226
3526.17	0.0002273
3537.75	0.0002171
3549.32	0.0001249
3560.89	0.0001975
3572.47	0.0002249
3584.04	0.0001651
3595.62	0.0002287
3607.19	8.788e-05
3618.76	4.928e-05
3630.34	0.0001563
3641.91	7.678e-05
3653.49	0.0001743
3665.06	0.0001041
3676.63	0.0001291
3688.21	0.0001346
3699.78	0.0001968
3711.35	0.0001542
3722.93	0.0001144
3734.5	0.0001248
3746.08	0.0001259
3757.65	0.0002012
3769.22	0.0002218
3780.8	0.0001232
3792.37	0.0002085
3803.94	0.000135
3815.52	0.0002026
3827.09	0.0001754
3838.67	0.0002733
3850.24	0.0002571
3861.81	0.000213
3873.39	0.0002623
3884.96	0.0003312
3896.54	0.0003493
3908.11	0.0003703
3919.68	0.0003461
3931.26	0.0003955
3942.83	0.000363
3954.4	0.0002735
3965.98	0.0004615
3977.55	0.0004824
3989.13	0.0004502
4000.7	0.00039
