Infrared Spectrum: 4-Chloro-2-butanone
Formula: C 4 H 7 Cl O
CAS: 6322-49-2
State: gas
Origin: EPA-IR VAPOR PHASE LIBRARY
1/CM	ABSORBANCE
549.8	0.001634
559.445	0.002414
569.09	0.003984
578.734	0.003674
588.379	0.002634
598.024	0.001374
607.669	0.0007903
617.313	0.0006718
626.958	0.0007055
636.603	0.0008596
646.248	0.001834
655.893	0.002864
665.537	0.003954
675.182	0.004094
684.827	0.002194
694.472	0.001464
704.116	0.000991
713.761	0.001724
723.406	0.003424
733.051	0.005614
742.695	0.005824
752.34	0.002644
761.985	0.0009416
771.63	0.0006741
781.275	0.0005142
790.919	0.0007651
800.564	0.0008427
810.209	0.0011047
819.854	0.0009998
829.498	0.001494
839.143	0.001634
848.788	0.001434
858.433	0.0011422
868.078	0.0009726
877.722	0.001224
887.367	0.0011742
897.012	0.001244
906.657	0.0011905
916.301	0.001324
925.946	0.001494
935.591	0.001874
945.236	0.002494
954.88	0.002314
964.525	0.002334
974.17	0.002354
983.815	0.002254
993.46	0.002384
1003.1	0.002174
1012.75	0.002274
1022.39	0.001834
1032.04	0.001504
1041.68	0.001614
1051.33	0.001384
1060.97	0.001574
1070.62	0.001484
1080.26	0.001003
1089.91	0.0007163
1099.55	0.001344
1109.2	0.001274
1118.84	0.002334
1128.49	0.003684
1138.13	0.006904
1147.78	0.010674
1157.42	0.013334
1167.07	0.012394
1176.71	0.010434
1186.36	0.010394
1196	0.009684
1205.64	0.007814
1215.29	0.006294
1224.93	0.004774
1234.58	0.003964
1244.22	0.003014
1253.87	0.002704
1263.51	0.002464
1273.16	0.002174
1282.8	0.002734
1292.45	0.004384
1302.09	0.005984
1311.74	0.007924
1321.38	0.009744
1331.03	0.011334
1340.67	0.012704
1350.32	0.015284
1359.96	0.018614
1369.61	0.017834
1379.25	0.011864
1388.9	0.006854
1398.54	0.005924
1408.18	0.006334
1417.83	0.006794
1427.47	0.006664
1437.12	0.006344
1446.76	0.005504
1456.41	0.004124
1466.05	0.002984
1475.7	0.002244
1485.34	0.001774
1494.99	0.001604
1504.63	0.001584
1514.28	0.001544
1523.92	0.001674
1533.57	0.001584
1543.21	0.001564
1552.86	0.001454
1562.5	0.001284
1572.15	0.0011351
1581.79	0.0011462
1591.44	0.0010165
1601.08	0.0009705
1610.73	0.0009474
1620.37	0.0008723
1630.01	0.0009616
1639.66	0.0010723
1649.3	0.0010945
1658.95	0.001354
1668.59	0.001934
1678.24	0.003064
1687.88	0.005004
1697.53	0.008064
1707.17	0.013284
1716.82	0.021344
1726.46	0.031004
1736.11	0.034564
1745.75	0.031054
1755.4	0.018604
1765.04	0.008954
1774.69	0.003854
1784.33	0.002184
1793.98	0.001374
1803.62	0.0010195
1813.27	0.0007683
1822.91	0.0005901
1832.55	0.0005229
1842.2	0.0004404
1851.84	0.0004114
1861.49	0.0003875
1871.13	0.0004231
1880.78	0.0004432
1890.42	0.0003971
1900.07	0.0003815
1909.71	0.0003713
1919.36	0.000336
1929	0.0003893
1938.65	0.00029688
1948.29	0.00024729
1957.94	0.00029297
1967.58	0.000256
1977.23	0.00029285
1986.87	0.0001846
1996.52	0.00029556
2006.16	0.000217
2015.81	0.0003083
2025.45	0.00025772
2035.1	0.00026257
2044.74	0.00025971
2054.38	0.00028665
2064.03	0.00027586
2073.67	0.0003436
2083.32	0.0003552
2092.96	0.000336
2102.61	0.0004184
2112.25	0.0003493
2121.9	0.0003494
2131.54	0.000227379
2141.19	0.00031074
2150.83	0.0002832
2160.48	0.0002676
2170.12	0.0003174
2179.77	0.00032101
2189.41	0.0002586
2199.06	0.00028995
2208.7	0.0001955
2218.35	0.0001682
2227.99	0.0001971
2237.64	0.0001733
2247.28	0.0001819
2256.92	0.0002656
2266.57	0.00021542
2276.21	0.0001794
2285.86	0.00021483
2295.5	0.00029359
2305.15	0.0003307
2314.79	0.000224154
2324.44	0.00023869
2334.08	0.00027159
2343.73	0.00024809
2353.37	0.0001801
2363.02	0.000223518
2372.66	0.00026153
2382.31	0.00023767
2391.95	0.0001884
2401.6	0.000223386
2411.24	0.0002193
2420.89	0.0001869
2430.53	0.0001284
2440.18	0.00021
2449.82	0.00027327
2459.47	0.0001666
2469.11	0.00026636
2478.75	0.00025538
2488.4	0.00022072
2498.04	0.0001603
2507.69	0.0001514
2517.33	0.0002103
2526.98	0.000103
2536.62	0.00022012
2546.27	0.0002097
2555.91	0.0001695
2565.56	0.00021613
2575.2	0.0001581
2584.85	0.0001896
2594.49	0.0001311
2604.14	0.0001959
2613.78	0.0001745
2623.43	0.00023839
2633.07	0.000104
2642.72	0.000201
2652.36	0.000232362
2662.01	0.0001324
2671.65	0.0001966
2681.29	0.00030837
2690.94	0.00029452
2700.58	0.00029384
2710.23	0.00028042
2719.87	0.00024305
2729.52	0.0003663
2739.16	0.0003282
2748.81	0.0003566
2758.45	0.0003557
2768.1	0.00028705
2777.74	0.00031529
2787.39	0.0004313
2797.03	0.0005235
2806.68	0.0004387
2816.32	0.0005302
2825.97	0.0004058
2835.61	0.0005556
2845.26	0.0007588
2854.9	0.0007986
2864.55	0.0011923
2874.19	0.0011981
2883.84	0.001744
2893.48	0.002184
2903.12	0.002784
2912.77	0.003234
2922.41	0.003694
2932.06	0.003704
2941.7	0.003754
2951.35	0.004014
2960.99	0.004904
2970.64	0.005524
2980.28	0.005764
2989.93	0.004644
2999.57	0.004304
3009.22	0.004094
3018.86	0.003634
3028.51	0.002814
3038.15	0.001924
3047.8	0.001534
3057.44	0.0012049
3067.09	0.0011271
3076.73	0.0011969
3086.38	0.001131
3096.02	0.0010323
3105.67	0.0008557
3115.31	0.0005919
3124.95	0.0004541
3134.6	0.00025723
3144.24	0.0002423
3153.89	0.0003636
3163.53	0.000168
3173.18	0.00028407
3182.82	0.00022161
3192.47	0.00021419
3202.11	0.0002006
3211.76	0.00013
3221.4	0.00025933
3231.05	0.0001636
3240.69	0.000225951
3250.34	0.0001262
3259.98	0.00022309
3269.63	0.000228306
3279.27	0.00024348
3288.92	0.0001973
3298.56	0.00027885
3308.21	0.00026169
3317.85	0.0003594
3327.49	0.000114
3337.14	0.000231909
3346.78	0.0003337
3356.43	0.00023975
3366.07	0.00026253
3375.72	0.0002137
3385.36	0.0003807
3395.01	0.0003606
3404.65	0.0004799
3414.3	0.0005288
3423.94	0.000553
3433.59	0.0007304
3443.23	0.0009735
3452.88	0.0008543
3462.52	0.0008802
3472.17	0.0008084
3481.81	0.0004153
3491.46	0.0005334
3501.1	0.00025411
3510.75	0.00028671
3520.39	0.00024213
3530.04	0.00029624
3539.68	0.00012
3549.32	0.0003573
3558.97	7.2e-05
3568.61	0.0002014
3578.26	5.3e-05
3587.9	0.0002523
3597.55	0.0001936
3607.19	0.0003438
3616.84	0.00023428
3626.48	8.7e-05
3636.13	0.000119
3645.77	0.000229832
3655.42	0.000325
3665.06	0.00021973
3674.71	0.0003328
3684.35	0.00031779
3694	0.00030277
3703.64	0.0001434
3713.29	0.00023862
3722.93	0.0003467
3732.58	0.0001253
3742.22	0.00030016
3751.86	0.000225239
3761.51	0.000225299
3771.15	9.5e-05
3780.8	0.00028333
3790.44	0.0003206
3800.09	0.0002357
3809.73	0.00029761
3819.38	0.0002013
3829.02	0.0001535
3838.67	0.0002455
3848.31	0.00031187
3857.96	0.00025475
3867.6	0.00025049
3877.25	0.00029909
3886.89	0.000233225
3896.54	0.00029836
3906.18	0.00031401
3915.83	0.0001837
3925.47	0.0004051
3935.12	3.8e-05
3944.76	0.0001866
3954.41	0.00026602
3964.05	0.0004193
3973.69	0.00026956
3983.34	0.0001748
3992.98	0.00022124
