Infrared Spectrum: 1-Propanethiol
Formula: C 3 H 8 S
CAS: 107-03-9
State: gas
Instrument: HP-GC/MS/IRD
Origin: NIST Mass Spectrometry Data Center
1/CM	ABSORBANCE
550	0.0003498
562	1.76e-05
574	0.0001562
586	7.92e-05
598	0.0001188
610	9.02e-05
622	0.0002904
634	0.000286
646	0.0003498
658	0.0003146
670	0.0002926
682	0.0002332
694	0.0004114
706	0.0004906
718	0.0007194
730	0.000748
742	0.000649
754	0.0004994
766	0.0005588
778	0.0006732
790	0.0008316
802	0.0008338
814	0.0008404
826	0.0006688
838	0.0006908
850	0.0006446
862	0.000847
874	0.0008998
886	0.0009526
898	0.0007964
910	0.0006292
922	0.000506
934	0.0004136
946	0.0003344
958	0.0002178
970	0.0002156
982	0.0002156
994	0.0001672
1006	0.0001716
1018	0.0002178
1030	0.0003432
1042	0.000352
1054	0.0005522
1066	0.000704
1078	0.000858
1090	0.0009812
1102	0.0010252
1114	0.0008316
1126	0.0005654
1138	0.0003938
1150	0.0003278
1162	0.000297
1174	0.0003234
1186	0.0004598
1198	0.0006314
1210	0.0008932
1222	0.0014036
1234	0.002266
1246	0.002596
1258	0.0026026
1270	0.002002
1282	0.0022704
1294	0.0026114
1306	0.0024508
1318	0.0019866
1330	0.0013112
1342	0.0010494
1354	0.0009746
1366	0.0010538
1378	0.0014366
1390	0.0016148
1402	0.0014256
1414	0.0012474
1426	0.0017798
1438	0.0025476
1450	0.0031064
1462	0.0030008
1474	0.0024574
1486	0.0017468
1498	0.0011132
1510	0.0007326
1522	0.0004532
1534	0.0002948
1546	0.0002508
1558	0.0002376
1570	0.0002266
1582	0.0001892
1594	0.000198
1606	0.000176
1618	0.0001738
1630	0.0001606
1642	0.0001694
1654	0.0002024
1666	0.0001606
1678	0.0001452
1690	0.0001584
1702	0.0001364
1714	0.000121
1726	0.0001166
1738	9.24e-05
1750	8.8e-05
1762	7.04e-05
1774	8.8e-05
1786	7.04e-05
1798	6.38e-05
1810	5.72e-05
1822	5.72e-05
1834	7.7e-05
1846	9.68e-05
1858	5.94e-05
1870	5.94e-05
1882	4.62e-05
1894	3.74e-05
1906	6.6e-05
1918	3.52e-05
1930	4.4e-05
1942	5.28e-05
1954	2.86e-05
1966	1.98e-05
1978	4.4e-05
1990	3.74e-05
2002	2.2e-06
2014	2.86e-05
2026	4.18e-05
2038	3.08e-05
2050	4.18e-05
2062	3.52e-05
2074	1.98e-05
2086	5.06e-05
2098	1.1e-05
2110	6.16e-05
2122	3.74e-05
2134	4.4e-05
2146	5.06e-05
2158	6.16e-05
2170	3.74e-05
2182	8.14e-05
2194	5.94e-05
2206	3.3e-05
2218	2.86e-05
2230	4.18e-05
2242	4.18e-05
2254	3.96e-05
2266	3.3e-05
2278	3.96e-05
2290	2.42e-05
2302	5.28e-05
2314	4.84e-05
2326	4.62e-05
2338	4.4e-06
2350	0
2362	0
2374	1.1e-05
2386	3.08e-05
2398	4.84e-05
2410	4.4e-05
2422	5.5e-05
2434	2.42e-05
2446	1.98e-05
2458	5.28e-05
2470	4.4e-05
2482	5.72e-05
2494	6.16e-05
2506	7.7e-05
2518	5.72e-05
2530	0.0001012
2542	0.0001254
2554	0.0001562
2566	0.0002266
2578	0.0003828
2590	0.000506
2602	0.0004906
2614	0.000407
2626	0.0002574
2638	0.0002244
2650	0.000198
2662	0.0002464
2674	0.0002882
2686	0.000275
2698	0.0002728
2710	0.000275
2722	0.0002904
2734	0.0003784
2746	0.0004312
2758	0.0005082
2770	0.0005214
2782	0.000572
2794	0.0006424
2806	0.000792
2818	0.0010758
2830	0.0016236
2842	0.0025564
2854	0.0038874
2866	0.0054186
2878	0.0073282
2890	0.0077638
2902	0.0086064
2914	0.0100122
2926	0.0134882
2938	0.0172348
2950	0.0196372
2962	0.021164
2974	0.0205986
2986	0.015884
2998	0.0093874
3010	0.0044242
3022	0.0022506
3034	0.0012738
3046	0.000957
3058	0.000814
3070	0.0007458
3082	0.000682
3094	0.0006424
3106	0.0005874
3118	0.000451
3130	0.0004136
3142	0.0003784
3154	0.0003894
3166	0.0003234
3178	0.000374
3190	0.000341
3202	0.0003212
3214	0.0002332
3226	0.0002024
3238	0.0001562
3250	9.46e-05
3262	0.000143
3274	7.92e-05
3286	6.16e-05
3298	0.0001276
3310	9.46e-05
3322	0.0001254
3334	0.0001276
3346	0.0001364
3358	0.0001166
3370	0.000132
3382	0.0001628
3394	0.0001144
3406	4.18e-05
3418	0.0001056
3430	7.7e-05
3442	5.72e-05
3454	0.000132
3466	3.96e-05
3478	0.0001056
3490	0.0001078
3502	0.000132
3514	5.72e-05
3526	0.0001298
3538	9.02e-05
3550	0.0001672
3562	0.000143
3574	8.8e-05
3586	0.000176
3598	0.0001276
3610	0.0001298
3622	0.000143
3634	0.0001826
3646	0.0001628
3658	0.0001474
3670	0.000176
3682	0.000231
3694	0.0001584
3706	0.0001672
3718	0.0002332
3730	0.0001914
3742	0.0001562
3754	0.0001188
3766	0.0001408
3778	0.0001518
3790	0.0001694
3802	0.0001122
3814	0.0001188
3826	0.0001628
3838	0.0001738
