Infrared Spectrum: METHANE, BROMODICHLORO-
Formula: C H Br Cl2
CAS: 75-27-4
State: GAS (50 mmHg DILUTED TO A TOTAL PRESSURE OF 600 mmHg WITH N2)
Boiling point: 91 C
Class: COBLENTZ
Instrument: PERKIN-ELMER 225
Sampling: TRANSMISSION
Path length: 5 CM CsI CELL
Resolution: 4
Origin: DOW CHEMICAL COMPANY
1/CM	TRANSMITTANCE
212.418	0.409
221.622	0.4939
230.826	0.563
240.029	0.605
249.233	0.652
258.437	0.676
267.641	0.71
276.845	0.742
286.049	0.744
295.252	0.755
304.456	0.783
313.66	0.78
322.864	0.788
332.068	0.775
341.271	0.78
350.475	0.796
359.679	0.791
368.883	0.789
378.087	0.783
387.29	0.774
396.494	0.775
405.698	0.769
414.902	0.785
424.106	0.778
433.31	0.775
442.513	0.769
451.717	0.775
460.921	0.804
470.125	0.807
479.329	0.802
488.532	0.796
497.736	0.786
506.94	0.778
516.144	0.78
525.348	0.781
534.551	0.778
543.755	0.775
552.959	0.78
562.163	0.781
571.367	0.781
580.571	0.775
589.774	0.703
598.978	0.4181
608.182	0.4443
617.386	0.5947
626.59	0.789
635.793	0.807
644.997	0.807
654.201	0.813
663.405	0.823
672.609	0.823
681.812	0.815
691.016	0.797
700.22	0.7341
709.424	0.6161
718.628	0.1451
727.832	0.009
737.035	0.007
746.239	0.554
755.443	0.3249
764.647	0.014
773.851	0.012
783.054	0.031
792.258	0.5259
801.462	0.747
810.666	0.695
819.87	0.685
829.074	0.775
838.277	0.812
847.481	0.829
856.685	0.834
865.889	0.835
875.093	0.834
884.296	0.835
893.5	0.838
902.704	0.842
911.908	0.845
921.112	0.838
930.315	0.83
939.519	0.83
948.723	0.83
957.927	0.832
967.131	0.832
976.335	0.824
985.538	0.823
994.742	0.826
1003.95	0.823
1013.15	0.818
1022.35	0.818
1031.56	0.813
1040.76	0.815
1049.97	0.81
1059.17	0.805
1068.37	0.804
1077.58	0.804
1086.78	0.802
1095.98	0.8
1105.19	0.797
1114.39	0.793
1123.6	0.791
1132.8	0.789
1142	0.778
1151.21	0.736
1160.41	0.4291
1169.61	0.252
1178.82	0.156
1188.02	0.733
1197.23	0.647
1206.43	0.281
1215.63	0.4337
1224.84	0.5461
1234.04	0.759
1243.25	0.781
1252.45	0.781
1261.65	0.781
1270.86	0.786
1280.06	0.793
1289.26	0.793
1298.47	0.789
1307.67	0.786
1316.88	0.783
1326.08	0.777
1335.28	0.777
1344.49	0.774
1353.69	0.772
1362.89	0.77
1372.1	0.774
1381.3	0.78
1390.51	0.796
1399.71	0.802
1408.91	0.802
1418.12	0.796
1427.32	0.8
1436.53	0.808
1445.73	0.813
1454.93	0.81
1464.14	0.808
1473.34	0.791
1482.54	0.775
1491.75	0.766
1500.95	0.802
1510.16	0.824
1519.36	0.816
1528.56	0.81
1537.77	0.812
1546.97	0.824
1556.17	0.832
1565.38	0.829
1574.58	0.827
1583.79	0.829
1592.99	0.826
1602.19	0.827
1611.4	0.83
1620.6	0.823
1629.81	0.826
1639.01	0.83
1648.21	0.856
1657.42	0.838
1666.62	0.842
1675.82	0.838
1685.03	0.837
1694.23	0.84
1703.44	0.815
1712.64	0.805
1721.84	0.786
1731.05	0.793
1740.25	0.778
1749.45	0.796
1758.66	0.807
1767.86	0.824
1777.07	0.827
1786.27	0.832
1795.47	0.837
1804.68	0.837
1813.88	0.835
1823.09	0.842
1832.29	0.842
1841.49	0.848
1850.7	0.842
1859.9	0.843
1869.1	0.843
1878.31	0.843
1887.51	0.838
1896.72	0.845
1905.92	0.84
1915.12	0.84
1924.33	0.842
1933.53	0.842
1942.73	0.843
1951.94	0.845
1961.14	0.843
1970.35	0.845
1979.55	0.843
1988.75	0.843
1997.96	0.843
2007.16	0.838
2016.37	0.8421
2025.57	0.8472
2034.77	0.8534
2043.98	0.859
2053.18	0.8592
2062.38	0.8636
2071.59	0.864
2080.79	0.865
2090	0.865
2099.2	0.868
2108.4	0.872
2117.61	0.873
2126.81	0.872
2136.02	0.873
2145.22	0.8773
2154.42	0.878
2163.63	0.879
2172.83	0.8783
2182.03	0.879
2191.24	0.881
2200.44	0.8828
2209.65	0.887
2218.85	0.887
2228.05	0.887
2237.26	0.887
2246.46	0.889
2255.66	0.892
2264.87	0.8933
2274.07	0.897
2283.28	0.897
2292.48	0.9006
2301.68	0.9076
2310.89	0.909
2320.09	0.909
2329.3	0.914
2338.5	0.919
2347.7	0.9231
2356.91	0.9249
2366.11	0.922
2375.31	0.9105
2384.52	0.903
2393.72	0.9035
2402.93	0.905
2412.13	0.8994
2421.33	0.897
2430.54	0.91
2439.74	0.9209
2448.94	0.921
2458.15	0.922
2467.35	0.922
2476.56	0.919
2485.76	0.921
2494.96	0.924
2504.17	0.9294
2513.37	0.93
2522.58	0.93
2531.78	0.93
2540.98	0.93
2550.19	0.93
2559.39	0.932
2568.59	0.932
2577.8	0.932
2587	0.932
2596.21	0.933
2605.41	0.9343
2614.61	0.935
2623.82	0.935
2633.02	0.935
2642.22	0.935
2651.43	0.939
2660.63	0.939
2669.84	0.939
2679.04	0.939
2688.24	0.9369
2697.45	0.936
2706.65	0.938
2715.86	0.9382
2725.06	0.9404
2734.26	0.939
2743.47	0.939
2752.67	0.943
2761.87	0.941
2771.08	0.941
2780.28	0.9429
2789.49	0.944
2798.69	0.943
2807.89	0.943
2817.1	0.943
2826.3	0.941
2835.5	0.941
2844.71	0.943
2853.91	0.943
2863.12	0.941
2872.32	0.9403
2881.52	0.9381
2890.73	0.938
2899.93	0.936
2909.14	0.936
2918.34	0.935
2927.54	0.935
2936.75	0.936
2945.95	0.935
2955.15	0.9346
2964.36	0.933
2973.56	0.9336
2982.77	0.9377
2991.97	0.941
3001.17	0.9381
3010.38	0.9308
3019.58	0.921
3028.78	0.8978
3037.99	0.8796
3047.19	0.919
3056.4	0.9382
3065.6	0.944
3074.8	0.944
3084.01	0.946
3093.21	0.947
3102.42	0.9473
3111.62	0.947
3120.82	0.947
3130.03	0.947
3139.23	0.949
3148.43	0.949
3157.64	0.947
3166.84	0.947
3176.05	0.947
3185.25	0.9463
3194.45	0.944
3203.66	0.943
3212.86	0.943
3222.07	0.943
3231.27	0.943
3240.47	0.943
3249.68	0.943
3258.88	0.944
3268.08	0.944
3277.29	0.9427
3286.49	0.939
3295.7	0.938
3304.9	0.9365
3314.1	0.936
3323.31	0.936
3332.51	0.936
3341.71	0.936
3350.92	0.9369
3360.12	0.938
3369.33	0.933
3378.53	0.9298
3387.73	0.9258
3396.94	0.924
3406.14	0.922
3415.35	0.922
3424.55	0.9248
3433.75	0.925
3442.96	0.927
3452.16	0.9292
3461.36	0.93
3470.57	0.932
3479.77	0.932
3488.98	0.933
3498.18	0.9362
3507.38	0.939
3516.59	0.941
3525.79	0.9424
3534.99	0.944
3544.2	0.9468
3553.4	0.952
3562.61	0.954
3571.81	0.954
3581.01	0.958
3590.22	0.96
3599.42	0.962
3608.63	0.965
3617.83	0.9648
3627.03	0.965
3636.24	0.966
3645.44	0.968
3654.64	0.965
3663.85	0.966
3673.05	0.965
3682.26	0.9659
3691.46	0.966
3700.66	0.968
3709.87	0.969
3719.07	0.9709
3728.27	0.969
3737.48	0.969
3746.68	0.968
3755.89	0.9658
3765.09	0.965
3774.29	0.962
3783.5	0.9707
3792.7	0.974
