Infrared Spectrum: Methane, bromodichloro-
Formula: C H Br Cl 2
CAS: 75-27-4
State: gas
Origin: Sadtler Research Labs Under US-EPA Contract
1/CM	ABSORBANCE
450	0.0143305
462	0.00816174
474	0.0131917
486	0.00882607
498	0.012812
510	0.0176521
522	0.0095853
534	0.0106292
546	0.010914
558	0.0110089
570	0.0145203
582	0.0159439
594	0.087976
606	0.164943
618	0.0991747
630	0
642	0.0110089
654	0.016798
666	0.0270476
678	0.0252445
690	0.0170827
702	0.0650092
714	0.381514
726	0.874825
738	0.762459
750	0.309482
762	0.863531
774	0.79596
786	0.297714
798	0.0516278
810	0.0408087
822	0.0409985
834	0.0201196
846	0.00740251
858	0.0047452
870	0.00626366
882	0.00816174
894	0.00597895
906	0.00635857
918	0.00654838
930	0.00493501
942	0.00645347
954	0.00597895
966	0.0046503
978	0.00778213
990	0.0071178
1002	0.00569424
1014	0.00654838
1026	0.00512482
1038	0.00521972
1050	0.00749742
1062	0.00446049
1074	0.00559934
1086	0.0072127
1098	0.00455539
1110	0.00759232
1122	0.00740251
1134	0.00427068
1146	0.0213534
1158	0.0657685
1170	0.220937
1182	0.26649
1194	0.0264782
1206	0.106862
1218	0.0974664
1230	0.0628264
1242	0.0134764
1254	0.00313183
1266	0.00597895
1278	0.00389106
1290	0.0022777
1302	0.00493501
1314	0.00446049
1326	0.00626366
1338	0.00673818
1350	0.00436558
1362	0.0047452
1374	0.00645347
1386	0.00645347
1398	0.0046503
1410	0.0048401
1422	0.00512482
1434	0.00673818
1446	0.0048401
1458	0.00664328
1470	0.0095853
1482	0.0114834
1494	0.013856
1506	0.0117681
1518	0.00654838
1530	0.0070229
1542	0.00882607
1554	0.00616876
1566	0.00379616
1578	0.00673818
1590	0.00351145
1602	0.00341654
1614	0.00559934
1626	0.00275222
1638	0.00597895
1650	0.00351145
1662	0.00332164
1674	0.0048401
1686	0.0072127
1698	0.00597895
1710	0.00540953
1722	0.00759232
1734	0.00816174
1746	0.00816174
1758	0.00778213
1770	0.00635857
1782	0.00654838
1794	0.00521972
1806	0.00408087
1818	0.00531462
1830	0.00398597
1842	0.00417578
1854	0.00398597
1866	0.00370126
1878	0.00370126
1890	0.00379616
1902	0.00322674
1914	0.00398597
1926	0.00341654
1938	0.00398597
1950	0.00408087
1962	0.00360635
1974	0.00389106
1986	0.00370126
1998	0.00389106
2010	0.0024675
2022	0.00256241
2034	0.00199298
2046	0.00199298
2058	0.0024675
2070	0.00370126
2082	0.00417578
2094	0.00455539
2106	0.00408087
2118	0.00370126
2130	0.00379616
2142	0.00303693
2154	0.00379616
2166	0.00322674
2178	0.00294202
2190	0.00417578
2202	0.00427068
2214	0.00417578
2226	0.00408087
2238	0.00398597
2250	0.00332164
2262	0.00379616
2274	0.00389106
2286	0.00398597
2298	0.00512482
2310	0.00626366
2322	0.00920569
2334	0.0127171
2346	0.00569424
2358	0.00749742
2370	0.00332164
2382	0.00389106
2394	0.00455539
2406	0.00436558
2418	0.0046503
2430	0.00550443
2442	0.00351145
2454	0.00256241
2466	0.00275222
2478	0.0024675
2490	0.0024675
2502	0.00303693
2514	0.00294202
2526	0.00256241
2538	0.00284712
2550	0.00294202
2562	0.0024675
2574	0.0022777
2586	0.00199298
2598	0.00132866
2610	0.00208789
2622	0.00256241
2634	0.00275222
2646	0.00389106
2658	0.00351145
2670	0.00408087
2682	0.00417578
2694	0.00303693
2706	0.00208789
2718	0.00189808
2730	0.00132866
2742	0.00199298
2754	0.00218279
2766	0.00218279
2778	0.00218279
2790	0.00303693
2802	0.00199298
2814	0.00151846
2826	0.00161337
2838	0.00180318
2850	0.00161337
2862	0.00199298
2874	0.00180318
2886	0.00142356
2898	0.00218279
2910	0.00151846
2922	0.0024675
2934	0.00151846
2946	0.00199298
2958	0.00370126
2970	0.00360635
2982	0.00341654
2994	0.00360635
3006	0.00180318
3018	0.00180318
3030	0.00825665
3042	0.0153744
3054	0.00797194
3066	0.00265731
3078	0.00218279
3090	0.00294202
3102	0.00180318
3114	0.00256241
3126	0.0024675
3138	0.0022777
3150	0.00284712
3162	0.0024675
3174	0.00284712
3186	0.00322674
3198	0.00351145
3210	0.00294202
3222	0.00294202
3234	0.00322674
3246	0.00256241
3258	0.00408087
3270	0.00322674
3282	0.0022777
3294	0.00313183
3306	0.00275222
3318	0.00370126
3330	0.00360635
3342	0.00303693
3354	0.00332164
3366	0.00446049
3378	0.00294202
3390	0.00398597
3402	0.0046503
3414	0.00294202
3426	0.00360635
3438	0.00360635
3450	0.00512482
3462	0.00370126
3474	0.0047452
3486	0.00351145
3498	0.00360635
3510	0.00417578
3522	0.0046503
3534	0.00360635
3546	0.00322674
3558	0.00284712
3570	0.00436558
3582	0.00493501
3594	0.00351145
3606	0.00313183
3618	0.00427068
3630	0.00379616
3642	0.00256241
3654	0.00332164
3666	0.00427068
3678	0.00408087
3690	0.00455539
3702	0.0024675
3714	0.00199298
3726	0.00104394
3738	0.00379616
3750	0.00351145
3762	0.00313183
3774	0.00104394
3786	0.00332164
3798	0.00521972
3810	0.00294202
3822	0.00408087
3834	0.00332164
3846	0.00332164
3858	0.00389106
3870	0.0046503
3882	0.00436558
3894	0.00512482
3906	0.00379616
3918	0.00436558
3930	0.00218279
3942	0.00104394
3954	0.0023726
3966	0.00189808
