Infrared Spectrum: Butane, 2,3-dichloro-
Formula: C 4 H 8 Cl 2
CAS: 7581-97-7
State: gas
Origin: Sadtler Research Labs Under US-EPA Contract
1/CM	ABSORBANCE
450	0.0374788
462	0.0104915
474	0.0094171
486	0.00334971
498	0.00916429
510	0.0146629
522	0.0278089
534	0.0399437
546	0.0202878
558	0.0186446
570	0.0206039
582	0.00707862
594	0.0298945
606	0.0401965
618	0.0350771
630	0.0534689
642	0.139613
654	0.430595
666	0.63202
678	0.235617
690	0.0775489
702	0.129754
714	0.131587
726	0.0599787
738	0.0140308
750	0.00815306
762	0.00720503
774	0.0113764
786	0.00802665
798	0.00669941
810	0.00910109
822	0.0093539
834	0.0185182
846	0.0403229
858	0.0514464
870	0.0324858
882	0.0104283
894	0.00752104
906	0.0103019
918	0.0113764
930	0.0158637
942	0.0429142
954	0.142394
966	0.188784
978	0.119831
990	0.0896204
1002	0.131334
1014	0.135631
1026	0.0665517
1038	0.0577666
1050	0.183728
1062	0.219374
1074	0.116608
1086	0.0616219
1098	0.0477175
1110	0.123307
1122	0.126025
1134	0.0390588
1146	0.0295785
1158	0.0288201
1170	0.0374156
1182	0.0538481
1194	0.0889252
1206	0.130259
1218	0.145807
1230	0.181327
1242	0.147387
1254	0.105927
1266	0.0826682
1278	0.0332443
1290	0.0317274
1302	0.0523945
1314	0.0525841
1326	0.0431038
1338	0.0352035
1350	0.0370364
1362	0.0501824
1374	0.144859
1386	0.276888
1398	0.19422
1410	0.0441782
1422	0.0242696
1434	0.074768
1446	0.194409
1458	0.208693
1470	0.123244
1482	0.0417133
1494	0.0153581
1506	0.0094803
1518	0.00796345
1530	0.00682582
1542	0.00594099
1554	0.00663621
1566	0.00492976
1578	0.00429774
1590	0.00543537
1602	0.00467695
1614	0.00486655
1626	0.00600419
1638	0.00492976
1650	0.00594099
1662	0.00752104
1674	0.00771064
1686	0.00827946
1698	0.00802665
1710	0.00777385
1722	0.01125
1734	0.0198454
1746	0.0263552
1758	0.0214887
1770	0.0168117
1782	0.01283
1794	0.012198
1806	0.0103019
1818	0.00524577
1830	0.0030337
1842	0.00214887
1854	0.00290729
1866	0.0030969
1878	0.00278089
1890	0.00233847
1902	0.0030969
1914	0.00278089
1926	0.0032233
1938	0.0031601
1950	0.00265448
1962	0.00341291
1974	0.00334971
1986	0.00334971
1998	0.00290729
2010	0.00233847
2022	0.00113764
2034	0.00208567
2046	0.00126404
2058	0.00132724
2070	0.00132724
2082	0.00063202
2094	0.00176966
2106	0.00214887
2118	0.00158005
2130	0.00176966
2142	0.00164325
2154	0.000884828
2166	0.00120084
2178	0.00094803
2190	0
2202	0.000821626
2214	0.00158005
2226	0.00126404
2238	0.00139044
2250	0.00120084
2262	0.00107443
2274	0.00164325
2286	0.00170645
2298	0.00189606
2310	0.00170645
2322	6.3202e-05
2334	0.00252808
2346	0.00688902
2358	0.000189606
2370	0.00701542
2382	0.00701542
2394	0.00385532
2406	0.0032233
2418	0.00233847
2430	0.00265448
2442	0.00442414
2454	0.00480335
2466	0.00448734
2478	0.00360251
2490	0.00265448
2502	0.00334971
2514	0.00379212
2526	0.0031601
2538	0.00385532
2550	0.00518256
2562	0.00372892
2574	0.0032865
2586	0.00341291
2598	0.0030969
2610	0.00537217
2622	0.00669941
2634	0.006257
2646	0.00783705
2658	0.00676261
2670	0.00240168
2682	0.00208567
2694	0.00189606
2706	0.00145365
2718	0.00227527
2730	0.00360251
2742	0.00568818
2754	0.00745784
2766	0.00594099
2778	0.00404493
2790	0.00410813
2802	0.00499296
2814	0.00676261
2826	0.0117556
2838	0.0122612
2850	0.0127668
2862	0.0189606
2874	0.0470855
2886	0.0743256
2898	0.0664885
2910	0.0504352
2922	0.0717343
2934	0.16995
2946	0.260329
2958	0.189543
2970	0.126341
2982	0.251481
2994	0.525398
3006	0.463776
3018	0.141193
3030	0.0235111
3042	0.0110604
3054	0.00846907
3066	0.00720503
3078	0.00865867
3090	0.00764744
3102	0.00707862
3114	0.00537217
3126	0.00499296
3138	0.00505616
3150	0.00549857
3162	0.00676261
3174	0.00695222
3186	0.0061938
3198	0.00846907
3210	0.0104915
3222	0.0108707
3234	0.0093539
3246	0.00752104
3258	0.00379212
3270	0.00505616
3282	0.00613059
3294	0.00568818
3306	0.00366572
3318	0.00233847
3330	0.00467695
3342	0.00448734
3354	0.00543537
3366	0.00562498
3378	0.00410813
3390	0.00176966
3402	0.00341291
3414	0.00145365
3426	0.00246488
3438	0.00410813
3450	0.00492976
3462	0.00290729
3474	0.00391852
3486	0.00246488
3498	0.00423453
3510	0.00436094
3522	0.00455054
3534	0.00360251
3546	0.00486655
3558	0.00600419
3570	0.00461375
3582	0.00682582
3594	0.00486655
3606	0.00802665
3618	0.00518256
3630	0.00227527
3642	0.00360251
3654	0.00714183
3666	0.00783705
3678	0.00720503
3690	0.00474015
3702	0.00297049
3714	0.00505616
3726	0.00600419
3738	0.00240168
3750	0.00480335
3762	0.00417133
3774	0.00423453
3786	0.00189606
3798	0.00562498
3810	0.00379212
3822	0.00474015
3834	0.00480335
3846	0.00423453
3858	0.00581458
3870	0.00278089
3882	0.00297049
3894	0.00259128
3906	0.00758424
3918	0.00417133
3930	0.00581458
3942	0.00505616
3954	0.00353931
3966	0.00423453
