Infrared Spectrum: d,l-2,3-DICHLOROBUTANE
Formula: C4 H8 Cl2
CAS: 7581-97-7
Class: COBLENTZ
Instrument: Not specified, most likely a prism, grating, or hybrid spectrometer.
Sampling: TRANSMISSION
Path length: 0.0025 CM
Resolution: 4
Origin: W.T. BOLLETER
MICROMETERS	TRANSMITTANCE
14.504	0.003
14.5744	0.007
14.6448	0.012
14.7152	0.017
14.7856	0.025
14.856	0.028
14.9264	0.028
14.9968	0.025
15.0672	0.01
15.1376	0.005
15.208	0.001
15.2784	0.001
15.3488	0.001
15.4192	0.001
15.4896	0
15.56	0.001
15.6304	0.005
15.7008	0.016
15.7712	0.033
15.8416	0.089
15.912	0.137
15.9824	0.176
16.0528	0.223
16.1232	0.253
16.1936	0.291
16.264	0.325
16.3344	0.344
16.4048	0.344
16.4752	0.312
16.5456	0.241
16.616	0.148
16.6864	0.078
16.7568	0.023
16.8272	0.01
16.8976	0.01
16.968	0.014
17.0384	0.035
17.1088	0.078
17.1792	0.123
17.2496	0.187
17.32	0.257
17.3904	0.325
17.4608	0.38
17.5312	0.428
17.6016	0.453
17.672	0.458
17.7424	0.439
17.8128	0.38
17.8832	0.3
17.9536	0.237
18.024	0.248
18.0944	0.312
18.1648	0.405
18.2352	0.496
18.3056	0.58
18.376	0.621
18.4464	0.632
18.5168	0.623
18.5872	0.598
18.6576	0.525
18.728	0.469
18.7984	0.396
18.8688	0.325
18.9392	0.255
19.0096	0.191
19.08	0.132
19.1504	0.073
19.2208	0.028
19.2912	0.021
19.3616	0.025
19.432	0.039
19.5024	0.121
19.5728	0.189
19.6432	0.31
19.7136	0.405
19.784	0.523
19.8544	0.6
19.9248	0.65
19.9952	0.689
20.0656	0.716
20.136	0.737
20.2064	0.751
20.2768	0.758
20.3472	0.757
20.4176	0.753
20.488	0.742
20.5584	0.735
20.6288	0.732
20.6992	0.737
20.7696	0.751
20.84	0.783
20.9104	0.803
20.9808	0.828
21.0512	0.844
21.1216	0.857
21.192	0.866
21.2624	0.873
21.3328	0.882
21.4032	0.887
21.4736	0.889
21.544	0.891
21.6144	0.889
21.6848	0.887
21.7552	0.883
21.8256	0.88
21.896	0.876
21.9664	0.871
22.0368	0.862
22.1072	0.86
22.1776	0.853
22.248	0.846
22.3184	0.833
22.3888	0.808
22.4592	0.791
22.5296	0.75
22.6	0.707
22.6704	0.635
22.7408	0.553
22.8112	0.489
22.8816	0.407
22.952	0.339
23.0224	0.301
23.0928	0.307
23.1632	0.366
23.2336	0.433
23.304	0.525
23.3744	0.594
23.4448	0.63
23.5152	0.655
23.5856	0.66
23.656	0.658
23.7264	0.65
23.7968	0.646
23.8672	0.657
23.9376	0.7
24.008	0.75
24.0784	0.791
24.1488	0.826
24.2192	0.858
24.2896	0.883
24.36	0.901
24.4304	0.908
24.5008	0.919
24.5712	0.921
24.6416	0.925
24.712	0.921
24.7824	0.917
24.8528	0.912
24.9232	0.907
24.9936	0.9
25.064	0.885
25.1344	0.866
25.2048	0.851
25.2752	0.819
25.3456	0.789
25.416	0.75
25.4864	0.716
25.5568	0.701
25.6272	0.685
25.6976	0.685
25.768	0.691
25.8384	0.701
25.9088	0.719
25.9792	0.742
26.0496	0.764
26.12	0.771
26.1904	0.783
26.2609	0.787
26.3313	0.787
26.4017	0.78
26.4721	0.762
26.5425	0.735
26.6129	0.705
26.6833	0.653
26.7537	0.589
26.8241	0.546
26.8945	0.494
26.9649	0.45
27.0353	0.412
27.1057	0.398
27.1761	0.389
27.2465	0.391
27.3169	0.417
27.3873	0.442
27.4577	0.458
27.5281	0.485
27.5985	0.492
27.6689	0.492
27.7393	0.487
27.8097	0.473
27.8801	0.444
27.9505	0.408
28.0209	0.367
28.0913	0.321
28.1617	0.28
28.2321	0.244
28.3025	0.216
28.3729	0.201
28.4433	0.198
28.5137	0.201
28.5841	0.212
28.6545	0.242
28.7249	0.253
28.7953	0.258
28.8657	0.258
28.9361	0.251
29.0065	0.221
29.0769	0.203
29.1473	0.189
29.2177	0.171
29.2881	0.164
29.3585	0.169
29.4289	0.196
29.4993	0.228
29.5697	0.289
29.6401	0.335
29.7105	0.389
29.7809	0.441
29.8513	0.483
29.9217	0.526
29.9921	0.569
30.0625	0.603
30.1329	0.625
30.2033	0.653
30.2737	0.662
30.3441	0.678
30.4145	0.689
30.4849	0.696
30.5553	0.703
30.6257	0.701
30.6961	0.694
30.7665	0.683
30.8369	0.66
30.9073	0.633
30.9777	0.612
31.0481	0.596
31.1185	0.578
31.1889	0.562
31.2593	0.553
31.3297	0.555
31.4001	0.567
31.4705	0.575
31.5409	0.594
31.6113	0.616
31.6817	0.63
31.7521	0.641
31.8225	0.646
31.8929	0.646
31.9633	0.642
32.0337	0.633
32.1041	0.621
32.1745	0.607
32.2449	0.6
32.3153	0.58
32.3857	0.569
32.4561	0.566
32.5265	0.571
32.5969	0.578
32.6673	0.603
32.7377	0.621
32.8081	0.637
32.8785	0.651
32.9489	0.66
33.0193	0.673
33.0897	0.683
33.1601	0.705
33.2305	0.71
33.3009	0.719
33.3713	0.732
33.4417	0.737
33.5121	0.742
33.5825	0.742
33.6529	0.744
33.7233	0.746
33.7937	0.748
33.8641	0.746
33.9345	0.744
34.0049	0.742
34.0753	0.741
34.1457	0.737
34.2161	0.735
34.2865	0.725
34.3569	0.721
34.4273	0.721
34.4977	0.719
34.5681	0.712
34.6385	0.703
34.7089	0.698
34.7793	0.694
34.8497	0.689
34.9201	0.682
34.9905	0.673
35.0609	0.667
35.1313	0.655
35.2017	0.648
35.2721	0.641
35.3425	0.633
35.4129	0.628
35.4833	0.625
35.5537	0.619
35.6241	0.617
35.6945	0.616
35.7649	0.612
35.8353	0.61
35.9057	0.605
35.9761	0.603
36.0465	0.6
36.1169	0.592
36.1873	0.587
36.2577	0.582
36.3281	0.576
36.3985	0.576
36.4689	0.573
36.5393	0.566
36.6097	0.56
36.6801	0.551
36.7505	0.544
36.8209	0.537
36.8913	0.528
36.9617	0.521
37.0321	0.508
37.1025	0.503
37.1729	0.5
37.2433	0.494
37.3137	0.492
37.3841	0.491
37.4545	0.489
37.5249	0.487
37.5953	0.487
37.6657	0.483
37.7361	0.483
37.8065	0.483
37.8769	0.483
37.9473	0.485
