Infrared Spectrum: SULFUR DIOXIDE
Formula: O2 S
CAS: 7446-09-5
State: GAS (100 mmHg DILUTED TO A TOTAL PRESSURE OF 600 mmHg WITH N2)
Class: COBLENTZ
Instrument: PERKIN-ELMER 180
Instrument parameters: I0 MODE, RESOLUTION: 1 CM^-^1 AT 4000 CM^-^1
Sampling: TRANSMISSION
Path length: 1 CM CELL
Resolution: 4
Origin: DOW CHEMICAL COMPANY
1/CM	TRANSMITTANCE
300.654	0
310.066	0.004
319.478	0.014
328.889	0.032
338.301	0.065
347.713	0.116
357.125	0.174
366.536	0.239
375.948	0.311
385.36	0.384
394.772	0.452
404.184	0.521
413.595	0.582
423.007	0.638
432.419	0.691
441.831	0.721
451.242	0.747
460.654	0.76
470.066	0.759
479.478	0.75
488.889	0.725
498.301	0.693
507.713	0.706
517.125	0.791
526.537	0.711
535.948	0.717
545.36	0.772
554.772	0.808
564.184	0.834
573.595	0.85
583.007	0.864
592.419	0.875
601.831	0.882
611.243	0.887
620.654	0.89
630.066	0.892
639.478	0.893
648.89	0.897
658.301	0.899
667.713	0.9
677.125	0.902
686.537	0.903
695.949	0.905
705.36	0.904
714.772	0.901
724.184	0.903
733.596	0.909
743.007	0.909
752.419	0.91
761.831	0.913
771.243	0.914
780.654	0.918
790.066	0.915
799.478	0.913
808.89	0.918
818.302	0.912
827.713	0.913
837.125	0.912
846.537	0.91
855.949	0.907
865.36	0.906
874.772	0.908
884.184	0.904
893.596	0.905
903.008	0.904
912.419	0.903
921.831	0.9
931.243	0.902
940.655	0.901
950.066	0.901
959.478	0.899
968.89	0.899
978.302	0.901
987.714	0.901
997.125	0.897
1006.54	0.885
1015.95	0.882
1025.36	0.883
1034.77	0.884
1044.18	0.885
1053.6	0.886
1063.01	0.884
1072.42	0.877
1081.83	0.872
1091.24	0.865
1100.65	0.855
1110.07	0.837
1119.48	0.807
1128.89	0.768
1138.3	0.749
1147.71	0.796
1157.13	0.78
1166.54	0.727
1175.95	0.768
1185.36	0.81
1194.77	0.826
1204.18	0.848
1213.6	0.862
1223.01	0.874
1232.42	0.885
1241.83	0.888
1251.24	0.891
1260.65	0.889
1270.07	0.892
1279.48	0.893
1288.89	0.893
1298.3	0.893
1307.71	0.881
1317.13	0.833
1326.54	0.672
1335.95	0.349
1345.36	0.1471
1354.77	0.159
1364.18	0.06
1373.6	0.084
1383.01	0.199
1392.42	0.727
1401.83	0.881
1411.24	0.889
1420.66	0.886
1430.07	0.888
1439.48	0.89
1448.89	0.889
1458.3	0.886
1467.71	0.884
1477.13	0.887
1486.54	0.892
1495.95	0.896
1505.36	0.892
1514.77	0.896
1524.18	0.896
1533.6	0.896
1543.01	0.893
1552.42	0.892
1561.83	0.891
1571.24	0.89
1580.66	0.888
1590.07	0.889
1599.48	0.886
1608.89	0.884
1618.3	0.885
1627.71	0.885
1637.13	0.882
1646.54	0.888
1655.95	0.885
1665.36	0.89
1674.77	0.892
1684.18	0.892
1693.6	0.895
1703.01	0.891
1712.42	0.893
1721.83	0.891
1731.24	0.893
1740.66	0.893
1750.07	0.893
1759.48	0.898
1768.89	0.899
1778.3	0.899
1787.71	0.899
1797.13	0.899
1806.54	0.899
1815.95	0.899
1825.36	0.899
1834.77	0.899
1844.18	0.899
1853.6	0.899
1863.01	0.899
1872.42	0.899
1881.83	0.898
1891.24	0.898
1900.66	0.898
1910.07	0.898
1919.48	0.898
1928.89	0.897
1938.3	0.895
1947.71	0.897
1957.13	0.899
1966.54	0.895
1975.95	0.892
1985.36	0.895
1994.77	0.895
2004.19	0.9
2013.6	0.906
2023.01	0.907
2032.42	0.905
2041.83	0.903
2051.24	0.902
2060.66	0.902
2070.07	0.902
2079.48	0.902
2088.89	0.902
2098.3	0.902
2107.71	0.902
2117.13	0.902
2126.54	0.901
2135.95	0.901
2145.36	0.901
2154.77	0.901
2164.19	0.901
2173.6	0.901
2183.01	0.901
2192.42	0.901
2201.83	0.9
2211.24	0.9
2220.66	0.9
2230.07	0.899
2239.48	0.899
2248.89	0.899
2258.3	0.898
2267.71	0.898
2277.13	0.8972
2286.54	0.897
2295.95	0.897
2305.36	0.895
2314.77	0.893
2324.19	0.892
2333.6	0.891
2343.01	0.891
2352.42	0.892
2361.83	0.893
2371.24	0.893
2380.66	0.893
2390.07	0.893
2399.48	0.893
2408.89	0.893
2418.3	0.893
2427.71	0.893
2437.13	0.892
2446.54	0.891
2455.95	0.8885
2465.36	0.8829
2474.77	0.8739
2484.19	0.8607
2493.6	0.8586
2503.01	0.873
2512.42	0.846
2521.83	0.8708
2531.24	0.8896
2540.66	0.8919
2550.07	0.89
2559.48	0.8902
2568.89	0.892
2578.3	0.89
2587.72	0.892
2597.13	0.891
2606.54	0.89
2615.95	0.888
2625.36	0.888
2634.77	0.889
2644.19	0.888
2653.6	0.888
2663.01	0.888
2672.42	0.889
2681.83	0.889
2691.24	0.889
2700.66	0.889
2710.07	0.889
2719.48	0.888
2728.89	0.887
2738.3	0.887
2747.72	0.886
2757.13	0.886
2766.54	0.887
2775.95	0.887
2785.36	0.887
2794.77	0.887
2804.19	0.8845
2813.6	0.885
2823.01	0.8835
2832.42	0.883
2841.83	0.88
2851.24	0.878
2860.66	0.877
2870.07	0.879
2879.48	0.88
2888.89	0.8809
2898.3	0.8784
2907.72	0.8769
2917.13	0.8724
2926.54	0.8721
2935.95	0.8762
2945.36	0.881
2954.77	0.8784
2964.19	0.882
2973.6	0.882
2983.01	0.882
2992.42	0.881
3001.83	0.8812
3011.24	0.883
3020.66	0.883
3030.07	0.884
3039.48	0.883
3048.89	0.883
3058.3	0.882
3067.72	0.881
3077.13	0.881
3086.54	0.88
3095.95	0.88
3105.36	0.88
3114.77	0.8797
3124.19	0.879
3133.6	0.8786
3143.01	0.878
3152.42	0.878
3161.83	0.876
3171.25	0.874
3180.66	0.873
3190.07	0.8754
3199.48	0.876
3208.89	0.8755
3218.3	0.874
3227.72	0.873
3237.13	0.872
3246.54	0.8715
3255.95	0.871
3265.36	0.87
3274.77	0.87
3284.19	0.87
3293.6	0.872
3303.01	0.8694
3312.42	0.866
3321.83	0.865
3331.25	0.865
3340.66	0.865
3350.07	0.865
3359.48	0.8656
3368.89	0.866
3378.3	0.866
3387.72	0.865
3397.13	0.864
3406.54	0.864
3415.95	0.865
3425.36	0.866
3434.77	0.867
3444.19	0.8675
3453.6	0.869
3463.01	0.87
3472.42	0.87
3481.83	0.87
3491.25	0.8708
3500.66	0.872
3510.07	0.873
3519.48	0.873
3528.89	0.873
3538.3	0.874
3547.72	0.875
3557.13	0.876
3566.54	0.876
3575.95	0.877
3585.36	0.878
3594.77	0.878
3604.19	0.878
3613.6	0.878
3623.01	0.878
3632.42	0.879
3641.83	0.88
3651.25	0.881
3660.66	0.881
3670.07	0.88
3679.48	0.88
3688.89	0.882
3698.3	0.883
3707.72	0.884
3717.13	0.8871
3726.54	0.895
3735.95	0.897
3745.36	0.8986
3754.78	0.9
3764.19	0.901
3773.6	0.902
3783.01	0.903
3792.42	0.903
3801.83	0.9023
3811.25	0.902
3820.66	0.901
3830.07	0.903
3839.48	0.904
3848.89	0.904
3858.3	0.904
3867.72	0.902
3877.13	0.901
3886.54	0.9
3895.95	0.9
3905.36	0.901
3914.78	0.902
3924.19	0.902
3933.6	0.904
3943.01	0.9037
3952.42	0.9011
3961.83	0.9014
3971.25	0.903
3980.66	0.903
3990.07	0.901
3999.48	0.9006
