Infrared Spectrum: 2-METHYL-1-PROPANETHIOL
Formula: C4 H10 S
CAS: 513-44-0
State: LIQUID
Boiling point: 88-89 C
Class: COBLENTZ
Instrument: Not specified, most likely a prism, grating, or hybrid spectrometer.
Sampling: TRANSMISSION
Path length: 0.005 CM
Resolution: 4
Origin: WYANDOTTE CHEMICALS CORP., WYANDOTTE, MICHIGAN, USA
MICROMETERS	TRANSMITTANCE
2.019	0.97
2.05613	0.965
2.09327	0.964
2.1304	0.964
2.16753	0.944
2.20467	0.858
2.2418	0.813
2.27894	0.835
2.31607	0.839
2.3532	0.846
2.39034	0.841
2.42747	0.87
2.4646	0.9
2.50174	0.905
2.53887	0.903
2.576	0.897
2.61314	0.908
2.65027	0.908
2.68741	0.903
2.72454	0.9
2.76167	0.897
2.79881	0.878
2.83594	0.86
2.87307	0.864
2.91021	0.884
2.94734	0.883
2.98447	0.869
3.02161	0.852
3.05874	0.853
3.09588	0.838
3.13301	0.762
3.17014	0.734
3.20728	0.771
3.24441	0.763
3.28154	0.712
3.31868	0.449
3.35581	0.037
3.39294	0.032
3.43008	0.032
3.46721	0.035
3.50435	0.138
3.54148	0.34
3.57861	0.575
3.61575	0.676
3.65288	0.706
3.69001	0.693
3.72715	0.741
3.76428	0.729
3.80141	0.698
3.83855	0.673
3.87568	0.657
3.91282	0.558
3.94995	0.584
3.98708	0.685
4.02422	0.741
4.06135	0.78
4.09848	0.811
4.13562	0.816
4.17275	0.813
4.20988	0.818
4.24702	0.819
4.28415	0.832
4.32128	0.844
4.35842	0.849
4.39555	0.842
4.43269	0.821
4.46982	0.835
4.50695	0.846
4.54409	0.846
4.58122	0.846
4.61835	0.844
4.65549	0.842
4.69262	0.841
4.72975	0.841
4.76689	0.844
4.80402	0.85
4.84116	0.85
4.87829	0.858
4.91542	0.86
4.95256	0.858
4.98969	0.853
5.02682	0.855
5.06396	0.853
5.10109	0.853
5.13822	0.855
5.17536	0.853
5.21249	0.856
5.24963	0.855
5.28676	0.85
5.32389	0.842
5.36103	0.835
5.39816	0.83
5.43529	0.828
5.47243	0.828
5.50956	0.83
5.54669	0.83
5.58383	0.83
5.62096	0.83
5.6581	0.828
5.69523	0.827
5.73236	0.813
5.7695	0.811
5.80663	0.811
5.84376	0.802
5.8809	0.794
5.91803	0.793
5.95516	0.786
5.9923	0.783
6.02943	0.79
6.06657	0.796
6.1037	0.797
6.14083	0.802
6.17797	0.799
6.2151	0.793
6.25223	0.791
6.28937	0.791
6.3265	0.79
6.36363	0.79
6.40077	0.78
6.4379	0.771
6.47504	0.755
6.51217	0.752
6.5493	0.724
6.58644	0.692
6.62357	0.632
6.6607	0.558
6.69784	0.405
6.73497	0.227
6.7721	0.045
6.80924	0.026
6.84637	0.052
6.88351	0.13
6.92064	0.253
6.95777	0.241
6.99491	0.178
7.03204	0.353
7.06917	0.486
7.10631	0.503
7.14344	0.446
7.18057	0.237
7.21771	0.029
7.25484	0.139
7.29198	0.071
7.32911	0.161
7.36624	0.443
7.40338	0.525
7.44051	0.497
7.47764	0.391
7.51478	0.317
7.55191	0.192
7.58904	0.391
7.62618	0.583
7.66331	0.643
7.70045	0.668
7.73758	0.671
7.77471	0.659
7.81185	0.626
7.84898	0.558
7.88611	0.376
7.92325	0.157
7.96038	0.041
7.99751	0.099
8.03465	0.29
8.07178	0.409
8.10892	0.412
8.14605	0.357
8.18318	0.337
8.22032	0.468
8.25745	0.576
8.29458	0.628
8.33172	0.66
8.36885	0.665
8.40598	0.66
8.44312	0.601
8.48025	0.502
8.51738	0.307
8.55452	0.251
8.59165	0.398
8.62879	0.553
8.66592	0.631
8.70305	0.668
8.74019	0.678
8.77732	0.678
8.81445	0.648
8.85159	0.583
8.88872	0.508
8.92585	0.471
8.96299	0.437
9.00012	0.39
9.03726	0.297
9.07439	0.211
9.11152	0.248
9.14866	0.359
9.18579	0.469
9.22292	0.531
9.26006	0.559
9.29719	0.594
9.33432	0.632
9.37146	0.657
9.40859	0.682
9.44573	0.701
9.48286	0.706
9.51999	0.704
9.55713	0.716
9.59426	0.727
9.63139	0.732
9.66853	0.74
9.70566	0.748
9.74279	0.763
9.77993	0.765
9.81706	0.768
9.8542	0.774
9.89133	0.774
9.92846	0.776
9.9656	0.772
10.0027	0.772
10.0399	0.766
10.077	0.763
10.1141	0.758
10.1513	0.751
10.1884	0.737
10.2255	0.724
10.2627	0.702
10.2998	0.673
10.3369	0.637
10.3741	0.581
10.4112	0.539
10.4483	0.499
10.4855	0.435
10.5226	0.404
10.5597	0.415
10.5969	0.44
10.634	0.471
10.6711	0.48
10.7083	0.472
10.7454	0.427
10.7825	0.367
10.8197	0.314
10.8568	0.275
10.8939	0.273
10.9311	0.351
10.9682	0.475
11.0053	0.552
11.0425	0.601
11.0796	0.64
11.1167	0.66
11.1539	0.671
11.191	0.692
11.2281	0.702
11.2653	0.707
11.3024	0.712
11.3395	0.715
11.3767	0.721
11.4138	0.726
11.4509	0.734
11.4881	0.734
11.5252	0.737
11.5623	0.74
11.5995	0.74
11.6366	0.743
11.6737	0.741
11.7109	0.74
11.748	0.74
11.7851	0.743
11.8223	0.741
11.8594	0.732
11.8965	0.735
11.9337	0.715
11.9708	0.698
12.0079	0.656
12.0451	0.597
12.0822	0.534
12.1193	0.469
12.1565	0.452
12.1936	0.496
12.2307	0.556
12.2679	0.603
12.305	0.622
12.3421	0.634
12.3793	0.622
12.4164	0.573
12.4535	0.497
12.4907	0.452
12.5278	0.496
12.565	0.553
12.6021	0.589
12.6392	0.62
12.6764	0.65
12.7135	0.662
12.7506	0.668
12.7878	0.671
12.8249	0.67
12.862	0.668
12.8992	0.668
12.9363	0.67
12.9734	0.676
13.0106	0.681
13.0477	0.692
13.0848	0.701
13.122	0.715
13.1591	0.726
13.1962	0.732
13.2334	0.738
13.2705	0.741
13.3076	0.743
13.3448	0.743
13.3819	0.741
13.419	0.74
13.4562	0.74
13.4933	0.73
13.5304	0.727
13.5676	0.72
13.6047	0.71
13.6418	0.695
13.679	0.681
13.7161	0.662
13.7532	0.645
13.7904	0.615
13.8275	0.59
13.8646	0.558
13.9018	0.53
13.9389	0.48
13.976	0.438
14.0132	0.377
14.0503	0.326
14.0874	0.279
14.1246	0.265
14.1617	0.272
14.1988	0.297
14.236	0.359
14.2731	0.43
14.3102	0.485
14.3474	0.534
14.3845	0.589
14.4216	0.618
14.4588	0.643
14.4959	0.664
14.533	0.679
14.5702	0.688
14.6073	0.695
14.6444	0.699
14.6816	0.699
14.7187	0.698
14.7558	0.695
14.793	0.69
14.8301	0.662
14.8672	0.654
14.9044	0.639
14.9415	0.628
14.9786	0.603
15.0158	0.592
15.0529	0.587
15.09	0.594
15.1272	0.615
15.1643	0.631
15.2014	0.643
15.2386	0.657
15.2757	0.67
15.3128	0.678
15.35	0.679
15.3871	0.678
15.4242	0.681
15.4614	0.682
15.4985	0.682
15.5356	0.685
15.5728	0.692
15.6099	0.69
15.647	0.695
15.6842	0.692
15.7213	0.692
15.7584	0.69
15.7956	0.684
15.8327	0.684
15.8698	0.681
15.907	0.678
15.9441	0.674
15.9812	0.674
