Infrared Spectrum: 2-Methyl-1-propanethiol
Formula: C 4 H 10 S
CAS: 513-44-0
State: gas
Instrument: HP-GC/MS/IRD
Origin: NIST Mass Spectrometry Data Center
1/CM	ABSORBANCE
550	0.000287
562	0.000161
574	4.2e-05
586	7.7e-05
598	6.3e-05
610	0.000189
622	0.000238
634	0.000245
646	0.000413
658	0.000651
670	0.000854
682	0.001015
694	0.00126
706	0.001918
718	0.002205
730	0.001498
742	0.000882
754	0.000693
766	0.000721
778	0.001015
790	0.001365
802	0.001589
814	0.00147
826	0.001218
838	0.000924
850	0.000609
862	0.000623
874	0.000721
886	0.000833
898	0.001134
910	0.001778
922	0.002527
934	0.002912
946	0.002604
958	0.001932
970	0.001323
982	0.000875
994	0.000595
1006	0.000567
1018	0.000476
1030	0.00049
1042	0.000504
1054	0.000616
1066	0.00091
1078	0.001596
1090	0.002401
1102	0.002814
1114	0.002275
1126	0.001484
1138	0.001057
1150	0.001645
1162	0.002499
1174	0.002093
1186	0.001183
1198	0.000819
1210	0.001519
1222	0.00231
1234	0.003773
1246	0.006181
1258	0.006727
1270	0.004501
1282	0.001799
1294	0.001295
1306	0.002072
1318	0.003395
1330	0.003857
1342	0.003472
1354	0.003962
1366	0.006209
1378	0.009282
1390	0.008897
1402	0.005355
1414	0.002737
1426	0.003458
1438	0.005376
1450	0.007756
1462	0.008988
1474	0.008666
1486	0.005586
1498	0.002947
1510	0.001393
1522	0.00084
1534	0.000651
1546	0.000553
1558	0.000574
1570	0.000518
1582	0.000476
1594	0.000441
1606	0.000399
1618	0.000392
1630	0.000385
1642	0.000371
1654	0.000413
1666	0.000392
1678	0.000392
1690	0.000322
1702	0.000287
1714	0.000189
1726	0.000182
1738	0.000147
1750	7.7e-05
1762	7e-05
1774	6.3e-05
1786	7.7e-05
1798	0.000112
1810	0.000126
1822	7.7e-05
1834	9.8e-05
1846	9.1e-05
1858	0.000112
1870	0.000154
1882	8.4e-05
1894	0.000119
1906	6.3e-05
1918	3.5e-05
1930	3.5e-05
1942	1.4e-05
1954	1.4e-05
1966	4.2e-05
1978	2.8e-05
1990	2.8e-05
2002	4.9e-05
2014	4.9e-05
2026	2.8e-05
2038	0
2050	4.9e-05
2062	3.5e-05
2074	3.5e-05
2086	2.8e-05
2098	1.4e-05
2110	3.5e-05
2122	9.1e-05
2134	8.4e-05
2146	6.3e-05
2158	9.8e-05
2170	9.8e-05
2182	0.000105
2194	0.000112
2206	0.000112
2218	6.3e-05
2230	4.2e-05
2242	4.9e-05
2254	3.5e-05
2266	5.6e-05
2278	7.7e-05
2290	7.7e-05
2302	0.000112
2314	9.1e-05
2326	6.3e-05
2338	7e-05
2350	6.3e-05
2362	0.000105
2374	0.000119
2386	0.000133
2398	0.000126
2410	0.000168
2422	0.000203
2434	0.000175
2446	0.000154
2458	0.000161
2470	0.000154
2482	0.000196
2494	0.000231
2506	0.00021
2518	0.000238
2530	0.000266
2542	0.000252
2554	0.000399
2566	0.00056
2578	0.000826
2590	0.001281
2602	0.001295
2614	0.001078
2626	0.000931
2638	0.000819
2650	0.000679
2662	0.000637
2674	0.000721
2686	0.000728
2698	0.000784
2710	0.00084
2722	0.001022
2734	0.001309
2746	0.001428
2758	0.001344
2770	0.001407
2782	0.001519
2794	0.001701
2806	0.002121
2818	0.002695
2830	0.003626
2842	0.004977
2854	0.007238
2866	0.013069
2878	0.01855
2890	0.021826
2902	0.022603
2914	0.025956
2926	0.033145
2938	0.040796
2950	0.050232
2962	0.067487
2974	0.060585
2986	0.036939
2998	0.011263
3010	0.003864
3022	0.002282
3034	0.001757
3046	0.001638
3058	0.001596
3070	0.001582
3082	0.001505
3094	0.001316
3106	0.001274
3118	0.00119
3130	0.001169
3142	0.001169
3154	0.001211
3166	0.001232
3178	0.001309
3190	0.001162
3202	0.001008
3214	0.000749
3226	0.000567
3238	0.000364
3250	0.000238
3262	0.000259
3274	0.000259
3286	0.000378
3298	0.000336
3310	0.000399
3322	0.000434
3334	0.000371
3346	0.000357
3358	0.000322
3370	0.000357
3382	0.000329
3394	0.000294
3406	0.000287
3418	0.000231
3430	0.000154
3442	0.000217
3454	0.000175
3466	0.00014
3478	0.000161
3490	9.1e-05
3502	7.7e-05
3514	0.000119
3526	0.000168
3538	0.000161
3550	0.000119
3562	4.9e-05
3574	9.8e-05
3586	7.7e-05
3598	9.1e-05
3610	6.3e-05
3622	0.000105
3634	0.00014
3646	6.3e-05
3658	0.00014
3670	0.000168
3682	0.000231
3694	0.000182
3706	0.000189
3718	0.000294
3730	0.000266
3742	0.000252
3754	0.000203
3766	0.000196
3778	0.000273
3790	0.000294
3802	0.000231
3814	0.000266
3826	0.000294
3838	0.000308
