Infrared Spectrum: ETHYL VINYL ETHER
Formula: C4 H8 O
CAS: 109-92-2
State: SOLUTION (10% IN CCl4 FOR 4000-1340 CM^-^1, 10% IN CS2 FOR 1340-600 CM^-^1)
Boiling point: 33.5 C
Class: COBLENTZ III
Instrument: BECKMAN IR-7 (GRATING)
Instrument parameters: GRATING CHANGES AT 3000, 2200, 1150 CM^-^1
Sampling: TRANSMISSION
Path length: 0.011 CM, 0.010 CM
Resolution: 4
Origin: WESTERN REGIONAL RES. USDA
1/CM	TRANSMITTANCE
600.102	0.877
608.703	0.874
617.303	0.858
625.904	0.866
634.504	0.858
643.105	0.843
651.705	0.831
660.306	0.848
668.906	0.844
677.507	0.842
686.107	0.813
694.708	0.749
703.308	0.807
711.909	0.84
720.509	0.858
729.11	0.863
737.71	0.863
746.311	0.854
754.912	0.839
763.512	0.817
772.113	0.784
780.713	0.701
789.314	0.558
797.914	0.3101
806.515	0.042
815.115	0.065
823.716	0.199
832.316	0.273
840.917	0.299
849.517	0.28
858.118	0.522
866.718	0.643
875.319	0.705
883.92	0.764
892.52	0.802
901.121	0.814
909.721	0.808
918.322	0.784
926.922	0.713
935.523	0.5241
944.123	0.377
952.724	0.319
961.324	0.075
969.925	0.2119
978.525	0.584
987.126	0.687
995.726	0.707
1004.33	0.707
1012.93	0.629
1021.53	0.4121
1030.13	0.252
1038.73	0.172
1047.33	0.38
1055.93	0.522
1064.53	0.349
1073.13	0.407
1081.73	0.6
1090.33	0.525
1098.93	0.435
1107.53	0.29
1116.13	0.084
1124.73	0.219
1133.33	0.461
1141.94	0.571
1150.54	0.512
1159.14	0.465
1167.74	0.478
1176.34	0.356
1184.94	0.125
1193.54	0.021
1202.14	0
1210.74	0.043
1219.34	0.3199
1227.94	0.562
1236.54	0.662
1245.14	0.715
1253.74	0.744
1262.34	0.75
1270.94	0.73
1279.54	0.715
1288.14	0.635
1296.74	0.634
1305.35	0.478
1313.95	0.0611
1322.55	0.455
1331.15	0.675
1339.75	0.71
1348.35	0.693
1356.95	0.515
1365.55	0.65
1374.15	0.4889
1382.75	0.353
1391.35	0.456
1399.95	0.6
1408.55	0.626
1417.15	0.688
1425.75	0.687
1434.35	0.62
1442.95	0.42
1451.55	0.601
1460.16	0.5691
1468.76	0.618
1477.36	0.343
1485.96	0.641
1494.56	0.651
1503.16	0.6
1511.76	0.556
1520.36	0.546
1528.96	0.514
1537.56	0.452
1546.16	0.415
1554.76	0.406
1563.36	0.41
1571.96	0.457
1580.56	0.426
1589.16	0.326
1597.76	0.151
1606.36	0.015
1614.96	0.019
1623.57	0.112
1632.17	0.075
1640.77	0.089
1649.37	0.15
1657.97	0.226
1666.57	0.4221
1675.17	0.613
1683.77	0.691
1692.37	0.747
1700.97	0.781
1709.57	0.786
1718.17	0.793
1726.77	0.8
1735.37	0.804
1743.97	0.808
1752.57	0.815
1761.17	0.818
1769.77	0.813
1778.37	0.805
1786.98	0.811
1795.58	0.808
1804.18	0.802
1812.78	0.795
1821.38	0.809
1829.98	0.817
1838.58	0.821
1847.18	0.819
1855.78	0.814
1864.38	0.812
1872.98	0.804
1881.58	0.775
1890.18	0.801
1898.78	0.804
1907.38	0.797
1915.98	0.786
1924.58	0.782
1933.18	0.79
1941.78	0.811
1950.39	0.812
1958.99	0.81
1967.59	0.817
1976.19	0.823
1984.79	0.822
1993.39	0.82
2001.99	0.819
2010.59	0.819
2019.19	0.819
2027.79	0.819
2036.39	0.818
2044.99	0.817
2053.59	0.817
2062.19	0.817
2070.79	0.8162
2079.39	0.817
2087.99	0.817
2096.59	0.817
2105.19	0.818
2113.8	0.819
2122.4	0.819
2131	0.819
2139.6	0.8199
2148.2	0.82
2156.8	0.821
2165.4	0.821
2174	0.821
2182.6	0.822
2191.2	0.822
2199.8	0.823
2208.4	0.8239
2217	0.823
2225.6	0.823
2234.2	0.822
2242.8	0.821
2251.4	0.819
2260	0.8175
2268.6	0.817
2277.21	0.816
2285.81	0.815
2294.41	0.8135
2303.01	0.813
2311.61	0.812
2320.21	0.812
2328.81	0.8125
2337.41	0.8138
2346.01	0.815
2354.61	0.8163
2363.21	0.818
2371.81	0.819
2380.41	0.8191
2389.01	0.821
2397.61	0.8216
2406.21	0.823
2414.81	0.825
2423.41	0.825
2432.02	0.8266
2440.62	0.827
2449.22	0.829
2457.82	0.831
2466.42	0.832
2475.02	0.832
2483.62	0.831
2492.22	0.8296
2500.82	0.829
2509.42	0.827
2518.02	0.8248
2526.62	0.8221
2535.22	0.8203
2543.82	0.818
2552.42	0.8158
2561.02	0.813
2569.62	0.812
2578.22	0.811
2586.82	0.8123
2595.43	0.8135
2604.03	0.815
2612.63	0.817
2621.23	0.8196
2629.83	0.8255
2638.43	0.8304
2647.03	0.8321
2655.63	0.833
2664.23	0.833
2672.83	0.832
2681.43	0.8278
2690.03	0.8223
2698.63	0.8178
2707.23	0.8103
2715.83	0.805
2724.43	0.7996
2733.03	0.7947
2741.63	0.7911
2750.23	0.7849
2758.84	0.782
2767.44	0.7777
2776.04	0.7732
2784.64	0.7667
2793.24	0.7544
2801.84	0.7422
2810.44	0.7312
2819.04	0.7224
2827.64	0.7126
2836.24	0.6745
2844.84	0.6063
2853.44	0.5635
2862.04	0.4935
2870.64	0.3746
2879.24	0.2921
2887.84	0.3296
2896.44	0.3575
2905.04	0.3388
2913.64	0.3098
2922.25	0.3026
2930.85	0.3382
2939.45	0.3843
2948.05	0.4759
2956.65	0.3652
2965.25	0.1681
2973.85	0.0844
2982.45	0.232
2991.05	0.3694
2999.65	0.4756
3008.25	0.6317
3016.85	0.7075
3025.45	0.7107
3034.05	0.6851
3042.65	0.6651
3051.25	0.6951
3059.85	0.7226
3068.45	0.6993
3077.05	0.6899
3085.66	0.7539
3094.26	0.7654
3102.86	0.7311
3111.46	0.6143
3120.06	0.5589
3128.66	0.796
3137.26	0.8092
3145.86	0.812
3154.46	0.8142
3163.06	0.8155
3171.66	0.817
3180.26	0.818
3188.86	0.819
3197.46	0.8205
3206.06	0.821
3214.66	0.823
3223.26	0.8233
3231.86	0.825
3240.46	0.825
3249.07	0.825
3257.67	0.826
3266.27	0.8266
3274.87	0.827
3283.47	0.827
3292.07	0.827
3300.67	0.827
3309.27	0.827
3317.87	0.826
3326.47	0.8256
3335.07	0.825
3343.67	0.824
3352.27	0.823
3360.87	0.8234
3369.47	0.825
3378.07	0.826
3386.67	0.827
3395.27	0.828
3403.87	0.829
3412.48	0.829
3421.08	0.8292
3429.68	0.8305
3438.28	0.831
3446.88	0.831
3455.48	0.831
3464.08	0.8305
3472.68	0.83
3481.28	0.831
3489.88	0.831
3498.48	0.832
3507.08	0.833
3515.68	0.835
3524.28	0.835
3532.88	0.835
3541.48	0.835
3550.08	0.835
3558.68	0.834
3567.29	0.834
3575.89	0.835
3584.49	0.8351
3593.09	0.837
3601.69	0.8376
3610.29	0.839
3618.89	0.841
3627.49	0.842
3636.09	0.843
3644.69	0.842
3653.29	0.84
3661.89	0.839
3670.49	0.839
3679.09	0.8371
3687.69	0.836
3696.29	0.8345
3704.89	0.833
3713.49	0.832
3722.09	0.832
3730.7	0.832
3739.3	0.832
3747.9	0.833
3756.5	0.833
3765.1	0.8335
3773.7	0.834
3782.3	0.835
3790.9	0.8353
3799.5	0.836
3808.1	0.836
3816.7	0.836
3825.3	0.837
3833.9	0.837
3842.5	0.838
3851.1	0.839
3859.7	0.839
3868.3	0.838
3876.9	0.8371
3885.5	0.837
3894.11	0.8366
3902.71	0.8354
3911.31	0.835
3919.91	0.834
3928.51	0.833
3937.11	0.832
3945.71	0.831
3954.31	0.8298
3962.91	0.829
3971.51	0.8273
3980.11	0.827
3988.71	0.826
3997.31	0.8255
4005.91	0.8253
