Infrared Spectrum: Ethene, ethoxy-
Formula: C 4 H 8 O
CAS: 109-92-2
State: gas
Origin: Sadtler Research Labs Under US-EPA Contract
1/CM	ABSORBANCE
450	0.00799822
462	0.00594909
474	0.00363555
486	0.00290844
498	0.00138812
510	0.00528808
522	0.00237964
534	0.0064779
546	0.000793212
558	0.00561858
570	0.00370166
582	0.00813042
594	0.00799822
606	0.00938634
618	0.0064118
630	0.00244574
642	0.00588299
654	0.00865923
666	0.00442877
678	0.0116338
690	0.0136829
702	0.0140134
714	0.0118982
726	0.0107084
738	0.00971685
750	0.0128236
762	0.0165914
774	0.0305387
786	0.0563181
798	0.0930041
810	0.126914
822	0.139473
834	0.13716
846	0.109067
858	0.0836839
870	0.0542689
882	0.0376776
894	0.0278946
906	0.0283573
918	0.0366861
930	0.058896
942	0.0815025
954	0.106158
966	0.118651
978	0.0953176
990	0.0598875
1002	0.0479232
1014	0.0597553
1026	0.0879804
1038	0.11647
1050	0.131078
1062	0.130417
1074	0.113958
1086	0.0975651
1098	0.100672
1110	0.173251
1122	0.234725
1134	0.236179
1146	0.15428
1158	0.116139
1170	0.15818
1182	0.278616
1194	0.506598
1206	0.660481
1218	0.531254
1230	0.241599
1242	0.0505673
1254	0.0325878
1266	0.0283573
1278	0.0325217
1290	0.0410487
1302	0.0748924
1314	0.17649
1326	0.151768
1338	0.107745
1350	0.0517571
1362	0.0587638
1374	0.100341
1386	0.100804
1398	0.10325
1410	0.0551282
1422	0.034042
1434	0.0297454
1446	0.0314641
1458	0.0306048
1470	0.0362894
1482	0.0393301
1494	0.0378759
1506	0.0280268
1518	0.0255811
1530	0.0225404
1542	0.0195659
1554	0.0219455
1566	0.0269031
1578	0.0433623
1590	0.0985566
1602	0.246887
1614	0.303139
1626	0.384906
1638	0.32568
1650	0.318144
1662	0.175564
1674	0.0931363
1686	0.0384708
1698	0.0206896
1710	0.0101135
1722	0.00872533
1734	0.00621349
1746	0.00746941
1758	0.00707281
1770	0.00799822
1782	0.00700671
1794	0.0068745
1806	0.0066101
1818	0.0066762
1830	0.00548638
1842	0.00475927
1854	0.00555248
1866	0.00740331
1878	0.0100474
1890	0.0105101
1902	0.0102457
1914	0.00971685
1926	0.0101796
1938	0.00819652
1950	0.00786602
1962	0.00713891
1974	0.00713891
1986	0.00502368
1998	0.00403216
2010	0.00337115
2022	0.00508978
2034	0.00594909
2046	0.00793212
2058	0.00760161
2070	0.0064118
2082	0.00330505
2094	0.00290844
2106	0.00231353
2118	0.00317285
2130	0.00271014
2142	0.00423046
2154	0.00621349
2166	0.00707281
2178	0.0066762
2190	0.00442877
2202	0.00323895
2214	0.00244574
2226	0.00237964
2238	0.00231353
2250	0.00224743
2262	0.00191693
2274	0.00244574
2286	0.00152032
2298	0.00165252
2310	0.000594909
2322	0.00204913
2334	0.000330505
2346	0.00284234
2358	0.00178473
2370	0.00343725
2382	0.00204913
2394	0.00330505
2406	0.00271014
2418	0.00376776
2430	0.00330505
2442	0.00330505
2454	0.00237964
2466	0.00244574
2478	0.00231353
2490	0.00264404
2502	0.00198303
2514	0.00191693
2526	0.00185083
2538	0.00112372
2550	0.00105762
2562	0.000925414
2574	0.00198303
2586	0.00145422
2598	0.00218133
2610	0.00145422
2622	0.00343725
2634	0.00251184
2646	0.00277624
2658	0.00158642
2670	0.00211523
2682	0.000594909
2694	0.00171863
2706	0.00211523
2718	0.00508978
2730	0.00614739
2742	0.0067423
2754	0.00733721
2766	0.00846093
2778	0.00912194
2790	0.0111711
2802	0.0132202
2814	0.0171863
2826	0.020954
2838	0.0270353
2850	0.0374132
2862	0.0590282
2874	0.0954498
2886	0.117858
2898	0.130616
2910	0.12579
2922	0.125195
2934	0.129558
2946	0.131673
2958	0.136366
2970	0.154214
2982	0.188784
2994	0.21463
3006	0.133921
3018	0.0822296
3030	0.0423707
3042	0.0318607
3054	0.027498
3066	0.028159
3078	0.0257794
3090	0.0202269
3102	0.0220777
3114	0.0326539
3126	0.0358928
3138	0.0369505
3150	0.0127575
3162	0.00700671
3174	0.00588299
3186	0.00535418
3198	0.00416436
3210	0.00396606
3222	0.00409826
3234	0.00297454
3246	0.00323895
3258	0.00251184
3270	0.00376776
3282	0.00244574
3294	0.00356945
3306	0.00185083
3318	0.00244574
3330	0
3342	0.00211523
3354	0
3366	0.00257794
3378	0.00066101
3390	0.00171863
3402	0
3414	0.00191693
3426	0.00125592
3438	0.00125592
3450	0.00118982
3462	0.000727111
3474	0.00125592
3486	0.000859313
3498	0.000859313
3510	0.00112372
3522	0.00171863
3534	0.000462707
3546	0.00145422
3558	0.000528808
3570	0.00251184
3582	0.000594909
3594	0.00204913
3606	0.00158642
3618	0.00304065
3630	0.00125592
3642	0.00231353
3654	0.00251184
3666	0.00237964
3678	0.00145422
3690	0.00251184
3702	0.00171863
3714	0.00231353
3726	0.00277624
3738	0.00370166
3750	0.00304065
3762	0.00297454
3774	0.00310675
3786	0.00337115
3798	0.00403216
3810	0.00343725
3822	0.00383386
3834	0.00356945
3846	0.00343725
3858	0.00317285
3870	0.00310675
3882	0.00218133
3894	0.00423046
3906	0.00185083
3918	0.00231353
3930	0.00290844
3942	0.00343725
3954	0.00284234
3966	0.00277624
