Infrared Spectrum: Cyclopropyl methyl carbinol
Formula: C 5 H 10 O
CAS: 765-42-4
State: gas
Origin: EPA-IR VAPOR PHASE LIBRARY
1/CM	ABSORBANCE
549.9	0.0020562
559.547	0.0023
569.193	0.00235
578.84	0.00237
588.486	0.002206
598.133	0.0020617
607.779	0.0018514
617.426	0.0015795
627.072	0.0013787
636.719	0.0013205
646.365	0.0014262
656.012	0.0013396
665.658	0.00129874
675.305	0.0014325
684.951	0.0014255
694.598	0.00131894
704.245	0.0015345
713.891	0.0016944
723.538	0.0019302
733.184	0.0020144
742.831	0.00225
752.477	0.0021837
762.124	0.002102
771.77	0.0019736
781.417	0.0019592
791.063	0.00249
800.71	0.0038
810.356	0.00604
820.003	0.00705
829.649	0.00661
839.296	0.00538
848.943	0.00447
858.589	0.00507
868.236	0.007
877.882	0.00867
887.529	0.01038
897.175	0.01164
906.822	0.01225
916.468	0.01471
926.115	0.02131
935.761	0.0245
945.408	0.02468
955.054	0.02055
964.701	0.01338
974.347	0.01127
983.994	0.01152
993.64	0.01394
1003.29	0.01883
1012.93	0.02479
1022.58	0.02976
1032.23	0.03158
1041.87	0.02861
1051.52	0.02818
1061.17	0.02715
1070.81	0.02818
1080.46	0.03102
1090.11	0.03314
1099.75	0.03263
1109.4	0.02799
1119.05	0.02201
1128.69	0.0163
1138.34	0.01394
1147.99	0.01371
1157.63	0.01304
1167.28	0.01197
1176.92	0.01069
1186.57	0.01037
1196.22	0.01021
1205.86	0.01015
1215.51	0.01076
1225.16	0.01291
1234.8	0.017
1244.45	0.02058
1254.1	0.02091
1263.74	0.01874
1273.39	0.0138
1283.04	0.01119
1292.68	0.01058
1302.33	0.0109
1311.98	0.01121
1321.62	0.01103
1331.27	0.01097
1340.92	0.01093
1350.56	0.01141
1360.21	0.01366
1369.86	0.01736
1379.5	0.02084
1389.15	0.02298
1398.79	0.0206
1408.44	0.01608
1418.09	0.01254
1427.73	0.01012
1437.38	0.00909
1447.03	0.00959
1456.67	0.00841
1466.32	0.0068
1475.97	0.00476
1485.61	0.00322
1495.26	0.0022132
1504.91	0.0016757
1514.55	0.001456
1524.2	0.00129437
1533.85	0.0011765
1543.49	0.001087
1553.14	0.000981
1562.79	0.000937
1572.43	0.000877
1582.08	0.000845
1591.73	0.000855
1601.37	0.00078
1611.02	0.000745
1620.67	0.000793
1630.31	0.000783
1639.96	0.000845
1649.6	0.000889
1659.25	0.000871
1668.9	0.000803
1678.54	0.0007
1688.19	0.000691
1697.84	0.000653
1707.48	0.000619
1717.13	0.00059
1726.78	0.000656
1736.42	0.000722
1746.07	0.000771
1755.72	0.000935
1765.36	0.000945
1775.01	0.000984
1784.66	0.000952
1794.3	0.000957
1803.95	0.00098
1813.6	0.001045
1823.24	0.001109
1832.89	0.0011353
1842.54	0.0011664
1852.18	0.0011444
1861.83	0.0011431
1871.47	0.0011726
1881.12	0.0011325
1890.77	0.0012893
1900.41	0.0014632
1910.06	0.0016853
1919.71	0.0017341
1929.35	0.001673
1939	0.0014732
1948.65	0.00126474
1958.29	0.001073
1967.94	0.000987
1977.59	0.000925
1987.23	0.000883
1996.88	0.000866
2006.53	0.000794
2016.17	0.000857
2025.82	0.000996
2035.47	0.0011619
2045.11	0.0014467
2054.76	0.0016573
2064.41	0.0016761
2074.05	0.0016071
2083.7	0.0014639
2093.35	0.00127668
2102.99	0.0011619
2112.64	0.000996
2122.28	0.000895
2131.93	0.000922
2141.58	0.000865
2151.22	0.000871
2160.87	0.000874
2170.52	0.000853
2180.16	0.00086
2189.81	0.000838
2199.46	0.000911
2209.1	0.000946
2218.75	0.000952
2228.4	0.000974
2238.04	0.000942
2247.69	0.000967
2257.34	0.001024
2266.98	0.00097
2276.63	0.00093
2286.28	0.000843
2295.92	0.000796
2305.57	0.000787
2315.22	0.000788
2324.86	0.000815
2334.51	0.000839
2344.16	0.000921
2353.8	0.000884
2363.45	0.000909
2373.09	0.000951
2382.74	0.000966
2392.39	0.000988
2402.03	0.001012
2411.68	0.001046
2421.33	0.001044
2430.97	0.000969
2440.62	0.001065
2450.27	0.001048
2459.91	0.0011891
2469.56	0.00125564
2479.21	0.0013225
2488.85	0.001324
2498.5	0.0012024
2508.15	0.001084
2517.79	0.001014
2527.44	0.000979
2537.09	0.000977
2546.73	0.001072
2556.38	0.00109
2566.03	0.0011909
2575.67	0.00130199
2585.32	0.0013643
2594.96	0.0014405
2604.61	0.0016188
2614.26	0.0016348
2623.9	0.0017598
2633.55	0.0018715
2643.2	0.0018604
2652.84	0.0018365
2662.49	0.0017652
2672.14	0.0018301
2681.78	0.0017459
2691.43	0.0016454
2701.08	0.0015373
2710.72	0.0016679
2720.37	0.0016894
2730.02	0.001792
2739.66	0.0019148
2749.31	0.0020274
2758.96	0.0021543
2768.6	0.0024
2778.25	0.00257
2787.9	0.00294
2797.54	0.00319
2807.19	0.00355
2816.84	0.00403
2826.48	0.00491
2836.13	0.00643
2845.77	0.00924
2855.42	0.0131
2865.07	0.01809
2874.71	0.02216
2884.36	0.02404
2894.01	0.02306
2903.65	0.02011
2913.3	0.0178
2922.95	0.01702
2932.59	0.01656
2942.24	0.01672
2951.89	0.01987
2961.53	0.02694
2971.18	0.03928
2980.83	0.04365
2990.47	0.0418
3000.12	0.03898
3009.77	0.03638
3019.41	0.03175
3029.06	0.02384
3038.71	0.01366
3048.35	0.00745
3058	0.00689
3067.64	0.01099
3077.29	0.01705
3086.94	0.02381
3096.58	0.01652
3106.23	0.01081
3115.88	0.00468
3125.52	0.0020959
3135.17	0.00125304
3144.82	0.001091
3154.46	0.000773
3164.11	0.000985
3173.76	0.001073
3183.4	0.001011
3193.05	0.000939
3202.7	0.000806
3212.34	0.000673
3221.99	0.000361
3231.64	0.000583
3241.28	0.000227
3250.93	0.000282
3260.58	0.000241
3270.22	0.00022
3279.87	0.00015
3289.52	6e-05
3299.16	0.00019
3308.81	3e-05
3318.45	0.00016
3328.1	0.000352
3337.75	0.00022
3347.39	0.000501
3357.04	0.000255
3366.69	0.000462
3376.33	0.000598
3385.98	0.000566
3395.63	0.000396
3405.27	0.000367
3414.92	0.000259
3424.57	0.000418
3434.21	0.000326
3443.86	0.000612
3453.51	0.000362
3463.15	0.000648
3472.8	0.000681
3482.45	0.000438
3492.09	0.00048
3501.74	0.000606
3511.39	0.000462
3521.03	0.000427
3530.68	0.000273
3540.33	0.000401
3549.97	0.000617
3559.62	0.000524
3569.26	0.00047
3578.91	0.000496
3588.56	0.000683
3598.2	0.000888
3607.85	0.00122682
3617.5	0.00231
3627.14	0.00466
3636.79	0.00771
3646.44	0.0084
3656.08	0.00886
3665.73	0.00646
3675.38	0.00383
3685.02	0.0020211
3694.67	0.00121381
3704.32	0.00078
3713.96	0.00078
3723.61	0.000683
3733.26	0.000684
3742.9	0.000811
3752.55	0.000607
3762.2	0.000607
3771.84	0.000587
3781.49	0.000644
3791.13	0.000672
3800.78	0.00077
3810.43	0.000873
3820.07	0.000969
3829.72	0.0011617
3839.37	0.001113
3849.01	0.00103
3858.66	0.000999
3868.31	0.000918
3877.95	0.001003
3887.6	0.001001
3897.25	0.001079
3906.89	0.00103
3916.54	0.0011226
3926.19	0.000944
3935.83	0.000898
3945.48	0.000939
3955.13	0.000887
3964.77	0.000834
3974.42	0.000709
3984.07	0.000779
3993.71	0.000712
