Infrared Spectrum: 1,5-Hexadiyne
Formula: C 6 H 6
CAS: 628-16-0
State: gas
Instrument: HP-GC/MS/IRD
Origin: NIST Mass Spectrometry Data Center
1/CM	ABSORBANCE
550	0.0014656
562	0.002016
574	0.0022848
586	0.0020672
598	0.0025536
610	0.0059584
622	0.0167168
634	0.046656
646	0.0518592
658	0.0186752
670	0.0053568
682	0.0018752
694	0.0009536
706	0.0005888
718	0.0003328
730	0.0002496
742	0.0002368
754	0.0002176
766	0.0002688
778	0.0001728
790	0.0002944
802	0.0002688
814	0.0003072
826	0.0003776
838	0.0002496
850	0.0002944
862	0.0002624
874	0.0002176
886	0.0001792
898	5.76e-05
910	0.000192
922	0.0005248
934	0.0005888
946	0.000256
958	0.00016
970	0.00016
982	7.68e-05
994	0.0001024
1006	0.000128
1018	0.0001408
1030	0.0001088
1042	0.000128
1054	9.6e-05
1066	0.0001408
1078	0.0001856
1090	0.0001088
1102	0.0001792
1114	0.0001856
1126	0.0001664
1138	0.0002368
1150	0.0002176
1162	0.0002368
1174	0.00032
1186	0.0003008
1198	0.0004288
1210	0.000576
1222	0.0011776
1234	0.0033664
1246	0.0092928
1258	0.0127616
1270	0.0111296
1282	0.0043136
1294	0.001984
1306	0.0016768
1318	0.0017216
1330	0.0020032
1342	0.0016448
1354	0.0009792
1366	0.0003392
1378	0.0002624
1390	0.0002496
1402	0.0004416
1414	0.0008384
1426	0.0016448
1438	0.0024064
1450	0.0019904
1462	0.0012608
1474	0.0007168
1486	0.0004928
1498	0.0003072
1510	0.0002112
1522	0.0001536
1534	0.0001408
1546	7.04e-05
1558	6.4e-05
1570	7.68e-05
1582	8.32e-05
1594	3.2e-05
1606	8.32e-05
1618	7.68e-05
1630	0.0001024
1642	9.6e-05
1654	0.0001344
1666	7.04e-05
1678	9.6e-05
1690	7.04e-05
1702	0.0001344
1714	9.6e-05
1726	6.4e-05
1738	8.96e-05
1750	5.76e-05
1762	9.6e-05
1774	0.000128
1786	7.04e-05
1798	7.04e-05
1810	7.04e-05
1822	7.04e-05
1834	8.32e-05
1846	5.12e-05
1858	7.68e-05
1870	5.12e-05
1882	6.4e-05
1894	0.0001024
1906	9.6e-05
1918	8.96e-05
1930	8.96e-05
1942	9.6e-05
1954	8.96e-05
1966	7.04e-05
1978	5.12e-05
1990	8.96e-05
2002	9.6e-05
2014	8.32e-05
2026	9.6e-05
2038	0.0001472
2050	0.0001792
2062	0.0001536
2074	0.0001536
2086	0.0002624
2098	0.000544
2110	0.0011648
2122	0.0015744
2134	0.0012416
2146	0.0004992
2158	0.0002624
2170	0.0001664
2182	0.0001216
2194	0.000128
2206	0.0001024
2218	0.0001024
2230	9.6e-05
2242	0.0001024
2254	0.0001344
2266	0.00016
2278	0.0001472
2290	9.6e-05
2302	0.0001216
2314	0.0001344
2326	0.0001216
2338	0.000128
2350	0.0001024
2362	0.0001024
2374	0.0001024
2386	7.04e-05
2398	0.0001408
2410	0.0001344
2422	0.0001472
2434	0.0001408
2446	0.0001536
2458	0.0001344
2470	0.0001344
2482	0.0001088
2494	0.0001088
2506	5.12e-05
2518	8.32e-05
2530	7.68e-05
2542	9.6e-05
2554	8.32e-05
2566	0.0001408
2578	0.0001984
2590	0.0001728
2602	0.0001984
2614	8.32e-05
2626	0.0001408
2638	0.0001856
2650	0.0001728
2662	0.0002816
2674	0.0003136
2686	0.0004352
2698	0.00032
2710	0.000192
2722	9.6e-05
2734	0.0001408
2746	0.0001728
2758	0.0001728
2770	0.0001856
2782	9.6e-05
2794	0.0001792
2806	0.000192
2818	0.0002752
2830	0.0004608
2842	0.0007296
2854	0.0011648
2866	0.001184
2878	0.0009344
2890	0.0008256
2902	0.0011904
2914	0.0024192
2926	0.0043712
2938	0.0057472
2950	0.005536
2962	0.0041728
2974	0.002368
2986	0.0012928
2998	0.0006848
3010	0.0004288
3022	0.0002432
3034	0.0001664
3046	0.0001728
3058	0.0001664
3070	0.0001408
3082	0.0001728
3094	0.0001472
3106	0.0001472
3118	0.0001536
3130	0.0001408
3142	0.0001856
3154	9.6e-05
3166	0.0001472
3178	0.0001472
3190	0.0001024
3202	0.0001344
3214	0.0001536
3226	0.0002368
3238	0.000384
3250	0.000608
3262	0.0009792
3274	0.001984
3286	0.0036096
3298	0.008416
3310	0.0120576
3322	0.0235712
3334	0.0197824
3346	0.0083328
3358	0.0023616
3370	0.001408
3382	0.000864
3394	0.0004864
3406	0.0003968
3418	0.000256
3430	0.0001984
3442	0.0002112
3454	0.0001536
3466	0.0001792
3478	0.0001792
3490	0.0001408
3502	0.0001472
3514	0.00016
3526	8.32e-05
3538	1.92e-05
3550	0.0001408
3562	8.96e-05
3574	4.48e-05
3586	3.84e-05
3598	5.76e-05
3610	6.4e-05
3622	0.0001088
3634	0.0001408
3646	0.0002112
3658	5.12e-05
3670	7.68e-05
3682	7.04e-05
3694	0.0001408
3706	4.48e-05
3718	2.56e-05
3730	0.0001728
3742	5.76e-05
3754	9.6e-05
3766	9.6e-05
3778	0.0001088
3790	7.68e-05
3802	5.12e-05
3814	9.6e-05
3826	0.0001024
3838	0.0001024
