Infrared Spectrum: Methoxymethyl isothiocyanate
Formula: C 3 H 5 N O S
CAS: 19900-84-6
State: gas
Origin: EPA-IR VAPOR PHASE LIBRARY
1/CM	ABSORBANCE
549.8	0.010147
559.445	0.013857
569.09	0.017717
578.734	0.020217
588.379	0.018767
598.024	0.016687
607.669	0.015117
617.313	0.014077
626.958	0.013207
636.603	0.012547
646.248	0.012217
655.893	0.012417
665.537	0.015267
675.182	0.021097
684.827	0.028947
694.472	0.033277
704.116	0.030147
713.761	0.027037
723.406	0.027157
733.051	0.027017
742.695	0.023797
752.34	0.018027
761.985	0.013357
771.63	0.009937
781.275	0.006667
790.919	0.004387
800.564	0.003377
810.209	0.003077
819.854	0.002467
829.498	0.002347
839.143	0.002307
848.788	0.002827
858.433	0.003367
868.078	0.003797
877.722	0.004947
887.367	0.007537
897.012	0.012377
906.657	0.020977
916.301	0.031817
925.946	0.035147
935.591	0.028197
945.236	0.017397
954.88	0.011747
964.525	0.009637
974.17	0.009527
983.815	0.009847
993.46	0.009797
1003.1	0.011457
1012.75	0.014057
1022.39	0.019517
1032.04	0.028887
1041.68	0.046167
1051.33	0.065127
1060.97	0.070137
1070.62	0.060437
1080.26	0.051567
1089.91	0.053467
1099.55	0.064807
1109.2	0.078077
1118.84	0.099127
1128.49	0.138437
1138.13	0.158197
1147.78	0.140567
1157.42	0.082667
1167.07	0.050857
1176.71	0.039197
1186.36	0.043057
1196	0.052887
1205.64	0.046957
1215.29	0.030667
1224.93	0.017327
1234.58	0.011647
1244.22	0.009947
1253.87	0.008357
1263.51	0.007947
1273.16	0.007867
1282.8	0.007647
1292.45	0.007127
1302.09	0.006167
1311.74	0.005227
1321.38	0.005497
1331.03	0.006547
1340.67	0.009437
1350.32	0.016857
1359.96	0.039217
1369.61	0.102377
1379.25	0.121117
1388.9	0.103547
1398.54	0.036597
1408.18	0.015967
1417.83	0.010627
1427.47	0.010587
1437.12	0.014407
1446.76	0.015727
1456.41	0.015177
1466.05	0.012847
1475.7	0.011057
1485.34	0.008717
1494.99	0.005907
1504.63	0.004657
1514.28	0.003937
1523.92	0.003427
1533.57	0.002997
1543.21	0.002547
1552.86	0.002327
1562.5	0.002297
1572.15	0.002217
1581.79	0.002407
1591.44	0.002447
1601.08	0.002307
1610.73	0.002307
1620.37	0.002187
1630.01	0.002107
1639.66	0.002177
1649.3	0.002007
1658.95	0.001947
1668.59	0.001837
1678.24	0.001817
1687.88	0.001807
1697.53	0.001787
1707.17	0.0014961
1716.82	0.0015102
1726.46	0.0013522
1736.11	0.0013228
1745.75	0.0013243
1755.4	0.0012841
1765.04	0.001334
1774.69	0.0015309
1784.33	0.0013978
1793.98	0.0015912
1803.62	0.001757
1813.27	0.002257
1822.91	0.002707
1832.55	0.003287
1842.2	0.003977
1851.84	0.005017
1861.49	0.006297
1871.13	0.008027
1880.78	0.010027
1890.42	0.012667
1900.07	0.015847
1909.71	0.019667
1919.36	0.024717
1929	0.031707
1938.65	0.041447
1948.29	0.055087
1957.94	0.074787
1967.58	0.104227
1977.23	0.148367
1986.87	0.212947
1996.52	0.301597
2006.16	0.413687
2015.81	0.541827
2025.45	0.631507
2035.1	0.546937
2044.74	0.370797
2054.38	0.221677
2064.03	0.157457
2073.67	0.129387
2083.32	0.115377
2092.96	0.108427
2102.61	0.107167
2112.25	0.113297
2121.9	0.121807
2131.54	0.115817
2141.19	0.092247
2150.83	0.065687
2160.48	0.048157
2170.12	0.038367
2179.77	0.033077
2189.41	0.029527
2199.06	0.025957
2208.7	0.022317
2218.35	0.019027
2227.99	0.015797
2237.64	0.012437
2247.28	0.009737
2256.92	0.007757
2266.57	0.006327
2276.21	0.005067
2285.86	0.004397
2295.5	0.003557
2305.15	0.003057
2314.79	0.002737
2324.44	0.002477
2334.08	0.002327
2343.73	0.002317
2353.37	0.002267
2363.02	0.001997
2372.66	0.001827
2382.31	0.001687
2391.95	0.001657
2401.6	0.0016144
2411.24	0.001647
2420.89	0.0015293
2430.53	0.0015179
2440.18	0.0016223
2449.82	0.001479
2459.47	0.0014811
2469.11	0.001468
2478.75	0.0014784
2488.4	0.0016477
2498.04	0.001847
2507.69	0.001957
2517.33	0.002167
2526.98	0.002317
2536.62	0.002517
2546.27	0.002537
2555.91	0.002757
2565.56	0.003067
2575.2	0.003237
2584.85	0.003597
2594.49	0.003817
2604.14	0.003697
2613.78	0.003557
2623.43	0.003007
2633.07	0.002547
2642.72	0.002657
2652.36	0.002717
2662.01	0.002907
2671.65	0.003127
2681.29	0.003317
2690.94	0.004007
2700.58	0.004647
2710.23	0.005667
2719.87	0.006517
2729.52	0.006937
2739.16	0.007127
2748.81	0.006777
2758.45	0.006447
2768.1	0.005827
2777.74	0.006147
2787.39	0.006487
2797.03	0.007507
2806.68	0.009417
2816.32	0.012427
2825.97	0.016697
2835.61	0.021247
2845.26	0.023787
2854.9	0.023727
2864.55	0.025737
2874.19	0.030947
2883.84	0.035667
2893.48	0.036317
2903.12	0.033687
2912.77	0.031327
2922.41	0.031247
2932.06	0.034197
2941.7	0.036007
2951.35	0.035197
2960.99	0.031847
2970.64	0.028477
2980.28	0.024897
2989.93	0.023387
2999.57	0.024117
3009.22	0.023607
3018.86	0.019227
3028.51	0.012167
3038.15	0.007787
3047.8	0.006167
3057.44	0.005077
3067.09	0.004577
3076.73	0.003917
3086.38	0.003447
3096.02	0.002837
3105.67	0.002617
3115.31	0.002077
3124.95	0.001687
3134.6	0.0015595
3144.24	0.0012826
3153.89	0.0011667
3163.53	0.0008232
3173.18	0.0008288
3182.82	0.0006382
3192.47	0.0006323
3202.11	0.000418
3211.76	0.000544
3221.4	0.000331
3231.05	0.000436
3240.69	0.000369
3250.34	0.000421
3259.98	0.000351
3269.63	0.000262
3279.27	0.00044
3288.92	0.000166
3298.56	0.000306
3308.21	0.000391
3317.85	0.000242
3327.49	0.000186
3337.14	0.000372
3346.78	0.000412
3356.43	0.00045
3366.07	0.000347
3375.72	0.000494
3385.36	0.0004
3395.01	0.000522
3404.65	0.000484
3414.3	0.000315
3423.94	0.000295
3433.59	0.000312
3443.23	0.00051
3452.88	0.0006233
3462.52	0.00069547
3472.17	0.000548
3481.81	0.000439
3491.46	0.000424
3501.1	0.000488
3510.75	0.000553
3520.39	0.0006298
3530.04	0.0007599
3539.68	0.00074833
3549.32	0.0006273
3558.97	0.000282
3568.61	0.000451
3578.26	0.00042
3587.9	0.000205
3597.55	0.000284
3607.19	0.000426
3616.84	0.000254
3626.48	0
3636.13	0.000226
3645.77	0.000267
3655.42	0.000383
3665.06	0.000384
3674.71	0.0005835
3684.35	0.000422
3694	0.0005584
3703.64	0.000323
3713.29	0.000394
3722.93	0.0008565
3732.58	0.000295
3742.22	0.000484
3751.86	0.0005873
3761.51	0.00051
3771.15	0.00073888
3780.8	0.000437
3790.44	0.00067888
3800.09	0.000469
3809.73	0.0005919
3819.38	0.00070717
3829.02	0.0008582
3838.67	0.0008154
3848.31	0.0007606
3857.96	0.0007577
3867.6	0.0009348
3877.25	0.0012066
3886.89	0.0011387
3896.54	0.0013756
3906.18	0.0011643
3915.83	0.001254
3925.47	0.001677
3935.12	0.001857
3944.76	0.002047
3954.41	0.002417
3964.05	0.002367
3973.69	0.002537
3983.34	0.003007
3992.98	0.003017
