Infrared Spectrum: 1-FLUORO-1,2,2-TRICHLOROETHANE
Formula: C2 H2 Cl3 F
CAS: 359-28-4
State: SOLUTION (10% CCl4 FOR 2.5-7.5, 10% CS2 FOR 7.5-16 MICRONS)
Class: COBLENTZ
Instrument: Not specified, most likely a prism, grating, or hybrid spectrometer.
Sampling: TRANSMISSION
Path length: 0.01 CM, 0.01 CM
Resolution: 4
Origin: DOW CHEMICAL COMPANY
MICROMETERS	TRANSMITTANCE
2.023	0.846
2.06315	0.85
2.1033	0.85
2.14344	0.85
2.18359	0.85
2.22374	0.85
2.26389	0.849
2.30404	0.849
2.34419	0.847
2.38433	0.847
2.42448	0.859
2.46463	0.862
2.50478	0.862
2.54493	0.867
2.58508	0.869
2.62522	0.87
2.66537	0.872
2.70552	0.869
2.74567	0.862
2.78582	0.852
2.82596	0.846
2.86611	0.844
2.90626	0.841
2.94641	0.836
2.98656	0.837
3.02671	0.839
3.06685	0.837
3.107	0.836
3.14715	0.842
3.1873	0.846
3.22745	0.842
3.2676	0.832
3.30774	0.809
3.34789	0.763
3.38804	0.846
3.42819	0.854
3.46834	0.854
3.50848	0.854
3.54863	0.857
3.58878	0.86
3.62893	0.862
3.66908	0.86
3.70923	0.862
3.74937	0.864
3.78952	0.864
3.82967	0.865
3.86982	0.87
3.90997	0.872
3.95011	0.864
3.99026	0.862
4.03041	0.86
4.07056	0.864
4.11071	0.859
4.15086	0.859
4.191	0.865
4.23115	0.862
4.2713	0.859
4.31145	0.854
4.3516	0.852
4.39175	0.862
4.43189	0.865
4.47204	0.874
4.51219	0.874
4.55234	0.875
4.59249	0.875
4.63263	0.875
4.67278	0.879
4.71293	0.874
4.75308	0.872
4.79323	0.874
4.83338	0.874
4.87352	0.872
4.91367	0.88
4.95382	0.88
4.99397	0.882
5.03412	0.884
5.07427	0.885
5.11441	0.885
5.15456	0.887
5.19471	0.887
5.23486	0.885
5.27501	0.884
5.31515	0.884
5.3553	0.884
5.39545	0.884
5.4356	0.884
5.47575	0.884
5.5159	0.884
5.55604	0.889
5.59619	0.889
5.63634	0.889
5.67649	0.889
5.71664	0.889
5.75679	0.887
5.79693	0.887
5.83708	0.887
5.87723	0.885
5.91738	0.882
5.95753	0.882
5.99767	0.877
6.03782	0.87
6.07797	0.857
6.11812	0.857
6.15827	0.852
6.19842	0.811
6.23856	0.74
6.27871	0.672
6.31886	0.635
6.35901	0.61
6.39916	0.567
6.4393	0.501
6.47945	0.503
6.5196	0.577
6.55975	0.632
6.5999	0.69
6.64005	0.745
6.68019	0.801
6.72034	0.839
6.76049	0.846
6.80064	0.869
6.84079	0.875
6.88094	0.877
6.92108	0.882
6.96123	0.882
7.00138	0.884
7.04153	0.882
7.08168	0.884
7.12182	0.887
7.16197	0.885
7.20212	0.887
7.24227	0.885
7.28242	0.877
7.32257	0.865
7.36271	0.85
7.40286	0.781
7.44301	0.725
7.48316	0.826
7.52331	0.774
7.56346	0.799
7.6036	0.842
7.64375	0.834
7.6839	0.773
7.72405	0.65
7.7642	0.64
7.80434	0.703
7.84449	0.741
7.88464	0.718
7.92479	0.751
7.96494	0.776
8.00509	0.776
8.04523	0.769
8.08538	0.771
8.12553	0.786
8.16568	0.793
8.20583	0.735
8.24598	0.6
8.28612	0.49
8.32627	0.561
8.36642	0.69
8.40657	0.778
8.44672	0.821
8.48686	0.834
8.52701	0.832
8.56716	0.816
8.60731	0.801
8.64746	0.778
8.68761	0.778
8.72775	0.793
8.7679	0.793
8.80805	0.779
8.8482	0.751
8.88835	0.7
8.92849	0.582
8.96864	0.341
9.00879	0.21
9.04894	0.451
9.08909	0.589
9.12924	0.629
9.16938	0.581
9.20953	0.37
9.24968	0.274
9.28983	0.4
9.32998	0.442
9.37013	0.349
9.41027	0.332
9.45042	0.471
9.49057	0.592
9.53072	0.622
9.57087	0.538
9.61101	0.321
9.65116	0.281
9.69131	0.364
9.73146	0.35
9.77161	0.354
9.81176	0.524
9.8519	0.701
9.89205	0.771
9.9322	0.802
9.97235	0.829
10.0125	0.839
10.0526	0.847
10.0928	0.849
10.1329	0.852
10.1731	0.847
10.2132	0.844
10.2534	0.836
10.2935	0.821
10.3337	0.779
10.3738	0.68
10.414	0.506
10.4541	0.47
10.4943	0.653
10.5344	0.745
10.5746	0.764
10.6147	0.784
10.6549	0.812
10.695	0.834
10.7352	0.846
10.7753	0.854
10.8155	0.855
10.8556	0.855
10.8958	0.855
10.9359	0.827
10.9761	0.771
11.0162	0.718
11.0564	0.723
11.0965	0.793
11.1366	0.821
11.1768	0.836
11.2169	0.826
11.2571	0.816
11.2972	0.804
11.3374	0.789
11.3775	0.773
11.4177	0.753
11.4578	0.743
11.498	0.726
11.5381	0.715
11.5783	0.7
11.6184	0.667
11.6586	0.644
11.6987	0.639
11.7389	0.652
11.779	0.683
11.8192	0.703
11.8593	0.721
11.8995	0.725
11.9396	0.701
11.9798	0.662
12.0199	0.572
12.0601	0.422
12.1002	0.258
12.1404	0.153
12.1805	0.152
12.2206	0.213
12.2608	0.301
12.3009	0.35
12.3411	0.359
12.3812	0.355
12.4214	0.392
12.4615	0.417
12.5017	0.37
12.5418	0.279
12.582	0.147
12.6221	0.099
12.6623	0.139
12.7024	0.25
12.7426	0.324
12.7827	0.4
12.8229	0.471
12.863	0.498
12.9032	0.526
12.9433	0.562
12.9835	0.592
13.0236	0.6
13.0638	0.581
13.1039	0.548
13.1441	0.48
13.1842	0.372
13.2244	0.23
13.2645	0.124
13.3047	0.057
13.3448	0.043
13.3849	0.051
13.4251	0.052
13.4652	0.051
13.5054	0.051
13.5455	0.089
13.5857	0.153
13.6258	0.226
13.666	0.327
13.7061	0.44
13.7463	0.509
13.7864	0.569
13.8266	0.605
13.8667	0.632
13.9069	0.65
13.947	0.662
13.9872	0.667
14.0273	0.67
14.0675	0.673
14.1076	0.675
14.1478	0.675
14.1879	0.672
14.2281	0.668
14.2682	0.667
14.3084	0.665
14.3485	0.662
14.3887	0.655
14.4288	0.65
14.469	0.645
14.5091	0.639
14.5492	0.63
14.5894	0.625
14.6295	0.617
14.6697	0.605
14.7098	0.596
14.75	0.582
14.7901	0.567
14.8303	0.541
14.8704	0.514
14.9106	0.478
14.9507	0.445
14.9909	0.397
15.031	0.347
15.0712	0.329
15.1113	0.327
15.1515	0.344
15.1916	0.375
15.2318	0.392
15.2719	0.41
15.3121	0.42
15.3522	0.425
15.3924	0.428
15.4325	0.428
15.4727	0.428
15.5128	0.428
15.553	0.428
15.5931	0.423
15.6332	0.42
15.6734	0.42
15.7135	0.417
15.7537	0.413
15.7938	0.412
15.834	0.407
15.8741	0.405
15.9143	0.403
15.9544	0.402
