Infrared Spectrum: Furan
Formula: C4 H4 O
CAS: 110-00-9
State: GAS (100 mmHg, N2 ADDED, TOTAL PRESSURE 600 mmHg)
Class: COBLENTZ
Instrument: DOW KBr FOREPRISM-GRATING
Instrument parameters: GRATING CHANGED AT 5.0, 7.5, 15.0 MICRON
Sampling: TRANSMISSION
Path length: 5 CM
Resolution: 2
Origin: DOW CHEMICAL COMPANY
1/CM	TRANSMITTANCE
460	0.8613
469	0.8613
478	0.8596
487	0.8555
496	0.8496
505	0.8422
514	0.8339
523	0.8299
532	0.8251
541	0.8329
550	0.8324
559	0.8249
568	0.7571
577	0.6144
586	0.4786
595	0.5008
604	0.0433
613	0.6371
622	0.3524
631	0.4791
640	0.7559
649	0.8488
658	0.8623
667	0.8533
676	0.8701
685	0.8687
694	0.8512
703	0.751
712	0.5097
721	0.1115
730	0.0586
739	0.2222
748	0.1189
757	0.0809
766	0.0374
775	0.1541
784	0.5047
793	0.7996
802	0.8558
811	0.8637
820	0.8638
829	0.8575
838	0.8313
847	0.7592
856	0.5069
865	0.3465
874	0.3059
883	0.2674
892	0.5857
901	0.7092
910	0.8368
919	0.8596
928	0.869
937	0.8721
946	0.8711
955	0.8518
964	0.7837
973	0.3856
982	0.0782
991	0.1143
1000	0.1117
1009	0.0729
1018	0.3837
1027	0.7875
1036	0.8091
1045	0.664
1054	0.4426
1063	0.4661
1072	0.4984
1081	0.421
1090	0.5933
1099	0.8489
1108	0.8766
1117	0.8827
1126	0.8827
1135	0.8616
1144	0.8053
1153	0.6911
1162	0.3401
1171	0.2276
1180	0.2654
1189	0.207
1198	0.3251
1207	0.5999
1216	0.7182
1225	0.7892
1234	0.8076
1243	0.8534
1252	0.8523
1261	0.8504
1270	0.8503
1279	0.8518
1288	0.8567
1297	0.8649
1306	0.8606
1315	0.8544
1324	0.8476
1333	0.8392
1342	0.8162
1351	0.7774
1360	0.698
1369	0.535
1378	0.5232
1387	0.5699
1396	0.6261
1405	0.7184
1414	0.8031
1423	0.8029
1432	0.7905
1441	0.7388
1450	0.6445
1459	0.5409
1468	0.4724
1477	0.2552
1486	0.2947
1495	0.3489
1504	0.314
1513	0.58
1522	0.8065
1531	0.8157
1540	0.7516
1549	0.6581
1558	0.5792
1567	0.4284
1576	0.3791
1585	0.4509
1594	0.4469
1603	0.594
1612	0.7608
1621	0.8465
1630	0.857
1639	0.8588
1648	0.8576
1657	0.8536
1666	0.8441
1675	0.8127
1684	0.77
1693	0.7587
1702	0.7405
1711	0.6613
1720	0.6674
1729	0.6866
1738	0.6454
1747	0.7143
1756	0.7589
1765	0.7895
1774	0.8247
1783	0.8392
1792	0.8505
1801	0.8571
1810	0.8626
1819	0.8649
1828	0.8661
1837	0.865
1846	0.8638
1855	0.862
1864	0.8609
1873	0.8608
1882	0.8611
1891	0.8603
1900	0.8522
1909	0.8619
1918	0.8586
1927	0.8609
1936	0.8638
1945	0.8634
1954	0.8642
1963	0.8633
1972	0.8573
1981	0.851
1990	0.8499
1999	0.8458
2008	0.8454
2017	0.8444
2026	0.8364
2035	0.833
2044	0.8198
2053	0.8412
2062	0.8547
2071	0.8579
2080	0.8587
2089	0.8573
2098	0.8528
2107	0.8537
2116	0.856
2125	0.8585
2134	0.8606
2143	0.8604
2152	0.8584
2161	0.8577
2170	0.8565
2179	0.8558
2188	0.8563
2197	0.8567
2206	0.8559
2215	0.8546
2224	0.8523
2233	0.85
2242	0.8496
2251	0.8506
2260	0.8517
2269	0.8523
2278	0.8549
2287	0.8622
2296	0.862
2305	0.8609
2314	0.8584
2323	0.8524
2332	0.8406
2341	0.8344
2350	0.836
2359	0.8435
2368	0.852
2377	0.8587
2386	0.8594
2395	0.8573
2404	0.8531
2413	0.8488
2422	0.8457
2431	0.845
2440	0.8502
2449	0.8563
2458	0.8627
2467	0.8699
2476	0.8735
2485	0.8748
2494	0.8745
2503	0.8733
2512	0.8716
2521	0.8694
2530	0.8666
2539	0.8637
2548	0.8611
2557	0.8588
2566	0.8569
2575	0.8551
2584	0.8536
2593	0.8528
2602	0.8526
2611	0.8543
2620	0.8604
2629	0.8617
2638	0.8596
2647	0.8567
2656	0.8541
2665	0.8536
2674	0.857
2683	0.8633
2692	0.8682
2701	0.869
2710	0.8667
2719	0.8629
2728	0.8593
2737	0.8589
2746	0.8586
2755	0.8633
2764	0.8699
2773	0.8739
2782	0.8743
2791	0.874
2800	0.8732
2809	0.8723
2818	0.8709
2827	0.8677
2836	0.8636
2845	0.8589
2854	0.8507
2863	0.8462
2872	0.8471
2881	0.8486
2890	0.8503
2899	0.8496
2908	0.8457
2917	0.8375
2926	0.8226
2935	0.8212
2944	0.8235
2953	0.8242
2962	0.8234
2971	0.8324
2980	0.8405
2989	0.844
2998	0.8456
3007	0.8462
3016	0.8466
3025	0.8484
3034	0.8534
3043	0.8614
3052	0.8643
3061	0.8654
3070	0.8647
3079	0.8602
3088	0.853
3097	0.8382
3106	0.8155
3115	0.7757
3124	0.7688
3133	0.7429
3142	0.7367
3151	0.7676
3160	0.8024
3169	0.8072
3178	0.8368
3187	0.8699
3196	0.876
3205	0.8771
3214	0.8782
3223	0.8786
3232	0.8792
3241	0.8797
3250	0.8801
3259	0.8803
3268	0.8805
3277	0.8807
3286	0.8808
3295	0.8808
3304	0.8809
3313	0.8813
3322	0.8818
3331	0.8822
3340	0.8828
3349	0.8831
3358	0.883
3367	0.8828
3376	0.8827
3385	0.8826
3394	0.8824
3403	0.8818
3412	0.8814
3421	0.8809
3430	0.8808
3439	0.8806
3448	0.8806
3457	0.8815
3466	0.8826
3475	0.8838
3484	0.8843
3493	0.8844
3502	0.8844
3511	0.8838
3520	0.8833
3529	0.8826
3538	0.8894
3547	0.8823
3556	0.8822
3565	0.8821
3574	0.882
3583	0.8818
3592	0.8817
3601	0.8816
3610	0.8815
3619	0.8814
3628	0.8815
3637	0.8818
3646	0.8821
3655	0.8824
3664	0.8828
3673	0.883
3682	0.8833
3691	0.8836
3700	0.8839
3709	0.8841
3718	0.8845
3727	0.8849
3736	0.8853
3745	0.8857
3754	0.8861
3763	0.8864
3772	0.8867
3781	0.887
3790	0.8872
