Infrared Spectrum: 1,2-Ethanedithiol
Formula: C 2 H 6 S 2
CAS: 540-63-6
State: gas
Origin: Sadtler Research Labs Under US-EPA Contract
1/CM	ABSORBANCE
450	0
462	0.0174191
474	0.0439391
486	0.0250786
498	0.0105009
510	0.0256551
522	0.0294849
534	0.0270141
546	0.0343029
558	0.0235138
570	0.0273435
582	0.0200547
594	0.0238844
606	0.0184898
618	0.0224431
630	0.0237609
642	0.0253257
654	0.032944
666	0.0376385
678	0.0771713
690	0.143306
702	0.166861
714	0.106615
726	0.0612347
738	0.052628
750	0.0382562
762	0.0504455
774	0.053081
786	0.0460804
798	0.0427448
810	0.0314203
822	0.0321204
834	0.0371032
846	0.0326146
858	0.0319969
870	0.035003
882	0.040027
894	0.0437743
906	0.0460392
918	0.0467393
930	0.0472746
942	0.0574873
954	0.0695942
966	0.0805069
978	0.0760183
990	0.0621406
1002	0.040727
1014	0.0301026
1026	0.0328616
1038	0.0353736
1050	0.0323675
1062	0.0259022
1074	0.0266023
1086	0.0254492
1098	0.0291554
1110	0.0341794
1122	0.0584344
1134	0.0890312
1146	0.108139
1158	0.105709
1170	0.0894841
1182	0.0839248
1194	0.0953729
1206	0.170403
1218	0.230237
1230	0.191569
1242	0.0842955
1254	0.0896077
1266	0.202647
1278	0.284471
1290	0.25198
1302	0.140918
1314	0.100273
1326	0.0569108
1338	0.0285377
1350	0.0238844
1362	0.0244609
1374	0.0263964
1386	0.0317086
1398	0.0455039
1410	0.0824835
1422	0.138324
1434	0.158172
1446	0.117075
1458	0.0735887
1470	0.0436096
1482	0.0302673
1494	0.024255
1506	0.023102
1518	0.021743
1530	0.0184898
1542	0.0200547
1554	0.0192722
1566	0.0174191
1578	0.0179133
1590	0.0171721
1602	0.0200547
1614	0.0228137
1626	0.0259434
1638	0.0291554
1650	0.0256551
1662	0.0203429
1674	0.022649
1686	0.0244197
1698	0.0261905
1710	0.0278789
1722	0.0281259
1734	0.0227725
1746	0.022649
1758	0.0124775
1770	0.0165955
1782	0.0179545
1794	0.0171721
1806	0.0168426
1818	0.0162661
1830	0.0157719
1842	0.015319
1854	0.0139188
1866	0.0145777
1878	0.0139188
1890	0.0141659
1902	0.0142483
1914	0.0145777
1926	0.0150307
1938	0.0155249
1950	0.0161426
1962	0.0168838
1974	0.018531
1986	0.0182839
1998	0.0165544
2010	0.0146601
2022	0.0140012
2034	0.0132188
2046	0.0135894
2058	0.0138777
2070	0.0138777
2082	0.0140012
2094	0.0143718
2106	0.0146189
2118	0.0140836
2130	0.0141247
2142	0.01396
2154	0.0143306
2166	0.0146601
2178	0.0145365
2190	0.0142071
2202	0.0138777
2214	0.0133011
2226	0.01396
2238	0.0140012
2250	0.013507
2262	0.0130952
2274	0.0127658
2286	0.0123952
2298	0.0115304
2310	0.0113657
2322	0.0111186
2334	0.0118187
2346	0.0130541
2358	0.0126423
2370	0.0146189
2382	0.0141247
2394	0.0143718
2406	0.0152366
2418	0.0155249
2430	0.0155249
2442	0.0149895
2454	0.0156072
2466	0.015319
2478	0.0152778
2490	0.0146189
2502	0.0137129
2514	0.0128893
2526	0.01326
2538	0.0138777
2550	0.0166779
2562	0.0221137
2574	0.0385857
2586	0.0561695
2598	0.0522162
2610	0.0338911
2622	0.0235138
2634	0.0177074
2646	0.0158955
2658	0.015319
2670	0.0147836
2682	0.0150719
2694	0.0169662
2706	0.0203017
2718	0.0224431
2730	0.0203429
2742	0.0177074
2754	0.0154837
2766	0.0144542
2778	0.0153601
2790	0.0161426
2802	0.0205488
2814	0.0291554
2826	0.0430331
2838	0.0553871
2850	0.0623465
2862	0.0613582
2874	0.0509808
2886	0.0429507
2898	0.0557989
2910	0.117198
2922	0.235385
2934	0.33014
2946	0.4118
2958	0.340806
2970	0.273971
2982	0.211295
2994	0.13367
3006	0.0730121
3018	0.0438155
3030	0.0288672
3042	0.0215371
3054	0.0187369
3066	0.0165544
3078	0.0163485
3090	0.0155249
3102	0.0147013
3114	0.0144542
3126	0.0148248
3138	0.0150719
3150	0.016019
3162	0.0156896
3174	0.015566
3186	0.0155249
3198	0.0158131
3210	0.0153601
3222	0.0152778
3234	0.0149072
3246	0.0144542
3258	0.0130952
3270	0.0128893
3282	0.0123128
3294	0.0120657
3306	0.0124775
3318	0.0130541
3330	0.0136718
3342	0.0155249
3354	0.0161014
3366	0.0151542
3378	0.0135894
3390	0.012807
3402	0.012807
3414	0.0130952
3426	0.0116951
3438	0.0114069
3450	0.0110362
3462	0.0120657
3474	0.0122305
3486	0.0123128
3498	0.0125599
3510	0.0140012
3522	0.0148248
3534	0.0154837
3546	0.0160602
3558	0.0149483
3570	0.0167603
3582	0.0149072
3594	0.0149072
3606	0.0151542
3618	0.0150307
3630	0.0144542
3642	0.0138365
3654	0.0140012
3666	0.0124364
3678	0.0123952
3690	0.0135894
3702	0.0132188
3714	0.0137953
3726	0.0141659
3738	0.0151954
3750	0.0150719
3762	0.0142071
3774	0.0123128
3786	0.0127658
3798	0.01396
3810	0.0120657
3822	0.0137541
3834	0.0122305
3846	0.0123128
3858	0.0142071
3870	0.0158955
3882	0.0161426
3894	0.0151954
3906	0.0154013
3918	0.0137129
3930	0.0149483
3942	0.0139188
3954	0.0144542
3966	0.0167191
