Infrared Spectrum: VINYL ETHER
Formula: C4 H6 O
CAS: 109-93-3
State: GAS (100 mmHg, N2 ADDED, TOTAL PRESSURE 600 mmHg)
Class: COBLENTZ
Instrument: DOW KBr FOREPRISM-GRATING
Instrument parameters: GRATING CHANGED AT 5.0, 7.5, 15.0 MICRON
Sampling: TRANSMISSION
Path length: 5 CM
Resolution: 2
Origin: DOW CHEMICAL COMPANY
1/CM	TRANSMITTANCE
385.591	0.88
394.988	0.878
404.385	0.877
413.782	0.872
423.179	0.865
432.576	0.859
441.973	0.852
451.37	0.853
460.767	0.858
470.164	0.866
479.561	0.833
488.959	0.831
498.356	0.849
507.753	0.89
517.15	0.894
526.547	0.896
535.944	0.896
545.341	0.896
554.738	0.891
564.135	0.877
573.532	0.864
582.929	0.871
592.326	0.878
601.723	0.91
611.12	0.928
620.517	0.926
629.914	0.921
639.311	0.918
648.708	0.907
658.105	0.885
667.502	0.862
676.899	0.809
686.296	0.763
695.694	0.713
705.091	0.679
714.488	0.687
723.885	0.703
733.282	0.736
742.679	0.792
752.076	0.866
761.473	0.881
770.87	0.865
780.267	0.837
789.664	0.808
799.061	0.725
808.458	0.568
817.855	0.331
827.252	0.157
836.649	0.035
846.046	0.038
855.443	0.035
864.84	0.062
874.237	0.112
883.634	0.198
893.031	0.295
902.429	0.396
911.826	0.406
921.223	0.323
930.62	0.226
940.017	0.116
949.414	0.1
958.811	0.097
968.208	0.245
977.605	0.236
987.002	0.106
996.399	0.135
1005.8	0.125
1015.19	0.293
1024.59	0.308
1033.99	0.463
1043.38	0.635
1052.78	0.719
1062.18	0.748
1071.58	0.763
1080.97	0.763
1090.37	0.757
1099.77	0.678
1109.16	0.568
1118.56	0.643
1127.96	0.565
1137.35	0.646
1146.75	0.653
1156.15	0.4309
1165.55	0.026
1174.94	0.002
1184.34	0.002
1193.74	0.002
1203.13	0.004
1212.53	0.004
1221.93	0.004
1231.33	0.02
1240.72	0.3371
1250.12	0.625
1259.52	0.675
1268.91	0.673
1278.31	0.682
1287.71	0.675
1297.1	0.508
1306.5	0.516
1315.9	0.353
1325.3	0.09
1334.69	0.1599
1344.09	0.131
1353.49	0.4971
1362.88	0.589
1372.28	0.3359
1381.68	0.1649
1391.07	0.146
1400.47	0.1971
1409.87	0.5131
1419.27	0.66
1428.66	0.691
1438.06	0.678
1447.46	0.713
1456.85	0.742
1466.25	0.831
1475.65	0.847
1485.05	0.862
1494.44	0.853
1503.84	0.84
1513.24	0.777
1522.63	0.638
1532.03	0.516
1541.43	0.494
1550.82	0.514
1560.22	0.574
1569.62	0.593
1579.02	0.573
1588.41	0.529
1597.81	0.4029
1607.21	0.1179
1616.6	0
1626	0
1635.4	0.004
1644.8	0.011
1654.19	0.017
1663.59	0.1271
1672.99	0.418
1682.38	0.456
1691.78	0.526
1701.18	0.5731
1710.57	0.695
1719.97	0.758
1729.37	0.796
1738.77	0.804
1748.16	0.82
1757.56	0.84
1766.96	0.836
1776.35	0.84
1785.75	0.83
1795.15	0.831
1804.54	0.836
1813.94	0.843
1823.34	0.85
1832.74	0.834
1842.13	0.7919
1851.53	0.732
1860.93	0.687
1870.32	0.671
1879.72	0.703
1889.12	0.733
1898.52	0.771
1907.91	0.807
1917.31	0.837
1926.71	0.871
1936.1	0.891
1945.5	0.896
1954.9	0.896
1964.29	0.896
1973.69	0.894
1983.09	0.89
1992.49	0.89
2001.88	0.89
2011.28	0.881
2020.68	0.8457
2030.07	0.7326
2039.47	0.7132
2048.87	0.7472
2058.27	0.7798
2067.66	0.7548
2077.06	0.7286
2086.46	0.7336
2095.85	0.7795
2105.25	0.8075
2114.65	0.8474
2124.04	0.8697
2133.44	0.8882
2142.84	0.8931
2152.24	0.896
2161.63	0.894
2171.03	0.8896
2180.43	0.8796
2189.82	0.8646
2199.22	0.847
2208.62	0.8552
2218.01	0.8652
2227.41	0.8724
2236.81	0.8731
2246.21	0.868
2255.6	0.8742
2265	0.8886
2274.4	0.8992
2283.79	0.904
2293.19	0.9028
2302.59	0.8963
2311.99	0.8796
2321.38	0.8435
2330.78	0.815
2340.18	0.8113
2349.57	0.8238
2358.97	0.788
2368.37	0.7928
2377.76	0.822
2387.16	0.8801
2396.56	0.9
2405.96	0.9
2415.35	0.9
2424.75	0.897
2434.15	0.8937
2443.54	0.884
2452.94	0.884
2462.34	0.883
2471.74	0.8752
2481.13	0.8508
2490.53	0.8338
2499.93	0.8564
2509.32	0.8846
2518.72	0.8994
2528.12	0.9064
2537.51	0.912
2546.91	0.913
2556.31	0.9126
2565.71	0.912
2575.1	0.912
2584.5	0.913
2593.9	0.9111
2603.29	0.8873
2612.69	0.8724
2622.09	0.8884
2631.48	0.9005
2640.88	0.9165
2650.28	0.9225
2659.68	0.9285
2669.07	0.9315
2678.47	0.932
2687.87	0.932
2697.26	0.929
2706.66	0.925
2716.06	0.9184
2725.46	0.9124
2734.85	0.909
2744.25	0.907
2753.65	0.9126
2763.04	0.918
2772.44	0.918
2781.84	0.9154
2791.23	0.9094
2800.63	0.8971
2810.03	0.888
2819.43	0.8834
2828.82	0.878
2838.22	0.8727
2847.62	0.8653
2857.01	0.8583
2866.41	0.8507
2875.81	0.8423
2885.21	0.8346
2894.6	0.8273
2904	0.8351
2913.4	0.8457
2922.79	0.8429
2932.19	0.8266
2941.59	0.8155
2950.98	0.7921
2960.38	0.7556
2969.78	0.7193
2979.18	0.691
2988.57	0.6545
2997.97	0.6703
3007.37	0.6859
3016.76	0.7084
3026.16	0.6641
3035.56	0.5826
3044.95	0.5778
3054.35	0.5895
3063.75	0.5892
3073.15	0.5813
3082.54	0.5827
3091.94	0.5962
3101.34	0.6628
3110.73	0.6268
3120.13	0.4986
3129.53	0.441
3138.93	0.5062
3148.32	0.7134
3157.72	0.8592
3167.12	0.8909
3176.51	0.922
3185.91	0.932
3195.31	0.9322
3204.7	0.931
3214.1	0.929
3223.5	0.931
3232.9	0.932
3242.29	0.9339
3251.69	0.934
3261.09	0.928
3270.48	0.925
3279.88	0.926
3289.28	0.931
3298.68	0.935
3308.07	0.938
3317.47	0.942
3326.87	0.945
3336.26	0.9481
3345.66	0.9511
3355.06	0.953
3364.45	0.953
3373.85	0.953
3383.25	0.953
3392.65	0.9528
3402.04	0.951
3411.44	0.951
3420.84	0.951
3430.23	0.953
3439.63	0.954
3449.03	0.954
3458.42	0.954
3467.82	0.954
3477.22	0.954
3486.62	0.954
3496.01	0.953
3505.41	0.95
3514.81	0.95
3524.2	0.953
3533.6	0.9532
3543	0.954
3552.4	0.956
3561.79	0.9554
3571.19	0.956
3580.59	0.952
3589.98	0.953
3599.38	0.951
3608.78	0.95
3618.17	0.948
3627.57	0.945
3636.97	0.9435
3646.37	0.9127
3655.76	0.921
3665.16	0.921
3674.56	0.8945
3683.95	0.9168
3693.35	0.941
3702.75	0.9473
3712.15	0.95
3721.54	0.9493
3730.94	0.9403
3740.34	0.9376
3749.73	0.9504
3759.13	0.956
3768.53	0.957
3777.92	0.959
3787.32	0.96
