Infrared Spectrum: Divinyl ether
Formula: C 4 H 6 O
CAS: 109-93-3
State: gas
Instrument: HP-GC/MS/IRD
Origin: NIST Mass Spectrometry Data Center
1/CM	ABSORBANCE
550	0.0002464
562	0.000176
574	0.0001536
586	0.0002112
598	0.0001312
610	0.0001568
622	0.0002848
634	8.32e-05
646	0.0002048
658	0.0003232
670	0.0005248
682	0.0006272
694	0.0007264
706	0.0009184
718	0.0008224
730	0.0007648
742	0.000608
754	0.0006752
766	0.000768
778	0.0009728
790	0.0013344
802	0.0019104
814	0.0031552
826	0.0045568
838	0.0065056
850	0.0071648
862	0.0070496
874	0.0061824
886	0.005152
898	0.0043488
910	0.0041344
922	0.0042464
934	0.004736
946	0.0051008
958	0.0048768
970	0.004496
982	0.0052288
994	0.0055136
1006	0.0059424
1018	0.0041312
1030	0.0027776
1042	0.0015072
1054	0.0008544
1066	0.0008864
1078	0.000832
1090	0.0010016
1102	0.00136
1114	0.0016384
1126	0.0022016
1138	0.0032576
1150	0.0071872
1162	0.0161952
1174	0.0239456
1186	0.0305152
1198	0.0303616
1210	0.0249888
1222	0.0204384
1234	0.0073664
1246	0.0024224
1258	0.0016064
1270	0.0014624
1282	0.0014336
1294	0.001808
1306	0.0025216
1318	0.0047264
1330	0.0044128
1342	0.0041312
1354	0.0023456
1366	0.0024416
1378	0.0033344
1390	0.0036192
1402	0.002704
1414	0.0012832
1426	0.000928
1438	0.0008384
1450	0.0007104
1462	0.0005824
1474	0.000464
1486	0.0004768
1498	0.0005728
1510	0.0007808
1522	0.0012192
1534	0.0016704
1546	0.0019744
1558	0.0022848
1570	0.0027296
1582	0.0042656
1594	0.0089792
1606	0.0215776
1618	0.0313472
1630	0.0317216
1642	0.0210752
1654	0.0084832
1666	0.0040448
1678	0.0023968
1690	0.0017408
1702	0.0012544
1714	0.00088
1726	0.0006528
1738	0.00056
1750	0.0004736
1762	0.0004576
1774	0.000464
1786	0.0004736
1798	0.000464
1810	0.00048
1822	0.0005344
1834	0.0005728
1846	0.0007168
1858	0.0008928
1870	0.0009088
1882	0.0008032
1894	0.0005984
1906	0.0004288
1918	0.0002976
1930	0.0002176
1942	0.0001984
1954	0.000192
1966	0.0002016
1978	0.0002112
1990	0.0003072
2002	0.0003136
2014	0.0005184
2026	0.0006592
2038	0.0007584
2050	0.000672
2062	0.0006272
2074	0.0006208
2086	0.000544
2098	0.0004128
2110	0.0003136
2122	0.000272
2134	0.0002208
2146	0.0001952
2158	0.0002016
2170	0.0002688
2182	0.0003072
2194	0.0002784
2206	0.0002912
2218	0.0002144
2230	0.0002528
2242	0.000208
2254	0.0002752
2266	0.0001664
2278	0.000176
2290	0.0001984
2302	0.0003072
2314	0.0003456
2326	0.0003808
2338	0.0003904
2350	0.000384
2362	0.000336
2374	0.00024
2386	0.0001472
2398	0.0001472
2410	0.0001376
2422	0.0001792
2434	0.0001952
2446	0.00024
2458	0.0002368
2470	0.0002304
2482	0.0002912
2494	0.000272
2506	0.000144
2518	0.0001792
2530	0.0001152
2542	0.0001056
2554	9.92e-05
2566	0.000112
2578	9.28e-05
2590	0.0001408
2602	0.0001184
2614	0.0002176
2626	0.00016
2638	0.0001056
2650	4.16e-05
2662	4.8e-05
2674	0.000128
2686	0.0001024
2698	6.72e-05
2710	9.92e-05
2722	8.96e-05
2734	3.2e-06
2746	7.36e-05
2758	2.88e-05
2770	1.28e-05
2782	0.000112
2794	0.000128
2806	0.000112
2818	0.000192
2830	0.000112
2842	0.0001952
2854	0.000192
2866	0.000112
2878	0.0001216
2890	0.0001792
2902	0.0001952
2914	0.0001632
2926	0.0001664
2938	0.0002368
2950	0.0003136
2962	0.0004256
2974	0.0005312
2986	0.0006912
2998	0.0006304
3010	0.000752
3022	0.0009824
3034	0.0012192
3046	0.0013632
3058	0.001472
3070	0.0012928
3082	0.0012224
3094	0.0012
3106	0.0012544
3118	0.0015712
3130	0.0014112
3142	0.001168
3154	0.0005248
3166	0.0002624
3178	0.000256
3190	0.000176
3202	0.00024
3214	0.000144
3226	0.0001088
3238	0.000144
3250	0.0001632
3262	0.0002816
3274	0.00016
3286	0.0001664
3298	2.88e-05
3310	0.000224
3322	3.2e-06
3334	0.000192
3346	8.96e-05
3358	9.28e-05
3370	6.4e-05
3382	6.08e-05
3394	0.0001728
3406	0.000176
3418	9.6e-05
3430	4.16e-05
3442	7.68e-05
3454	7.36e-05
3466	0.0001376
3478	0.0001568
3490	8.96e-05
3502	0.0001216
3514	0.000176
3526	0.0001568
3538	0.0001632
3550	0.0001088
3562	0.0003104
3574	0.0001216
3586	2.56e-05
3598	0.0001344
3610	0.0002208
3622	7.68e-05
3634	0.000272
3646	0.000144
3658	0.0001632
3670	7.04e-05
3682	0.0001248
3694	8.64e-05
3706	0.0001152
3718	0.0001984
3730	6.08e-05
3742	9.28e-05
3754	3.2e-06
3766	0.0001088
3778	0.0002048
3790	0.0002368
3802	8.32e-05
3814	8.32e-05
3826	6.4e-05
3838	1.92e-05
