Infrared Spectrum: Propane, 1,2,3-tribromo-
Formula: C3 H5 Br3
CAS: 96-11-7
State: SOLUTION (10% CCl4 FOR 2.7-7.4, 10% CS2 FOR 7.4-22)
Class: COBLENTZ
Instrument: DOW KBr FOREPRISM-GRATING
Instrument parameters: BLAZED AT 3.5, 12.0, 20.0 MICRON AND CHANGED AT 5.0, 7.5, 14.9 MICRON
Sampling: TRANSMISSION
Path length: 0.011 CM, 0.011 CM
Resolution: 2
Origin: DOW CHEMICAL COMPANY
1/CM	TRANSMITTANCE
3722	0.9219
3713	0.9195
3704	0.9182
3695	0.9164
3686	0.9187
3677	0.9236
3668	0.9269
3659	0.9194
3650	0.9179
3641	0.9163
3632	0.916
3623	0.9145
3614	0.9207
3605	0.9252
3596	0.9257
3587	0.9235
3578	0.9176
3569	0.9175
3560	0.9181
3551	0.9184
3542	0.918
3533	0.9174
3524	0.9157
3515	0.9162
3506	0.9168
3497	0.9173
3488	0.9177
3479	0.9177
3470	0.918
3461	0.9186
3452	0.9194
3443	0.9202
3434	0.921
3425	0.92
3416	0.9217
3407	0.9227
3398	0.9224
3389	0.9225
3380	0.923
3371	0.9232
3362	0.9234
3353	0.9235
3344	0.9251
3335	0.9238
3326	0.9237
3317	0.9234
3308	0.9243
3299	0.923
3290	0.9229
3281	0.9227
3272	0.924
3263	0.9238
3254	0.9237
3245	0.9228
3236	0.9234
3227	0.9231
3218	0.9231
3209	0.9226
3200	0.9207
3191	0.9208
3182	0.9194
3173	0.9138
3164	0.9155
3155	0.9189
3146	0.9187
3137	0.9183
3128	0.9169
3119	0.9164
3110	0.9161
3101	0.9174
3092	0.9226
3083	0.9163
3074	0.9191
3065	0.9152
3056	0.911
3047	0.9079
3038	0.9068
3029	0.8945
3020	0.8952
3011	0.8973
3002	0.898
2993	0.9022
2984	0.8997
2975	0.8715
2966	0.8733
2957	0.8438
2948	0.8459
2939	0.8856
2930	0.9034
2921	0.9127
2912	0.9169
2903	0.9195
2894	0.9209
2885	0.9222
2876	0.9234
2867	0.9227
2858	0.9213
2849	0.9178
2840	0.9154
2831	0.9116
2822	0.9159
2813	0.9079
2804	0.9127
2795	0.9181
2786	0.9196
2777	0.9211
2768	0.9211
2759	0.9211
2750	0.9207
2741	0.9204
2732	0.9201
2723	0.9201
2714	0.92
2705	0.92
2696	0.9201
2687	0.9203
2678	0.9202
2669	0.9176
2660	0.9114
2651	0.9159
2642	0.918
2633	0.9201
2624	0.9212
2615	0.9219
2606	0.9233
2597	0.9247
2588	0.9252
2579	0.9231
2570	0.9216
2561	0.9222
2552	0.9237
2543	0.9253
2534	0.9229
2525	0.9208
2516	0.9207
2507	0.9206
2498	0.9205
2489	0.9195
2480	0.9198
2471	0.9195
2462	0.9197
2453	0.9193
2444	0.9196
2435	0.9194
2426	0.9194
2417	0.9194
2408	0.9203
2399	0.9205
2390	0.9211
2381	0.9257
2372	0.9309
2363	0.9279
2354	0.9321
2345	0.9316
2336	0.9237
2327	0.9228
2318	0.9223
2309	0.9199
2300	0.9182
2291	0.9171
2282	0.9117
2273	0.9069
2264	0.91
2255	0.9136
2246	0.9165
2237	0.9182
2228	0.9201
2219	0.9206
2210	0.9208
2201	0.9211
2192	0.9199
2183	0.9212
2174	0.9228
2165	0.922
2156	0.9227
2147	0.9234
2138	0.9241
2129	0.9246
2120	0.9243
2111	0.9202
2102	0.9211
2093	0.9216
2084	0.9224
2075	0.9227
2066	0.9226
2057	0.921
2048	0.92
2039	0.9203
2030	0.9208
2021	0.9226
2012	0.923
2003	0.9213
1994	0.9105
1985	0.9142
1976	0.9112
1967	0.9099
1958	0.9136
1949	0.912
1940	0.9098
1931	0.9121
1922	0.9125
1913	0.9111
1904	0.9101
1895	0.9109
1886	0.9115
1877	0.9094
1868	0.9105
1859	0.9057
1850	0.9057
1841	0.9062
1832	0.9065
1823	0.9026
1814	0.908
1805	0.9063
1796	0.9074
1787	0.909
1778	0.9115
1769	0.9105
1760	0.9116
1751	0.9134
1742	0.912
1733	0.9116
1724	0.9106
1715	0.911
1706	0.9127
1697	0.9143
1688	0.9142
1679	0.9139
1670	0.9153
1661	0.9154
1652	0.9143
1643	0.9135
1634	0.9113
1625	0.9053
1616	0.9002
1607	0.8687
1598	0.8488
1589	0.8212
1580	0.8374
1571	0.8175
1562	0.7648
1553	0.747
1544	0.7637
1535	0.79
1526	0.8421
1517	0.8669
1508	0.8771
1499	0.8843
1490	0.9003
1481	0.9132
1472	0.9012
1463	0.8968
1454	0.8968
1445	0.8872
1436	0.6136
1427	0.7032
1418	0.4459
1409	0.8539
1400	0.8954
1391	0.9042
1382	0.9178
1373	0.9065
1364	0.9067
1355	0.9062
1346	0.9038
1337	0.8604
1328	0.6562
1319	0.8298
1310	0.8401
1301	0.8522
1292	0.8565
1283	0.8586
1274	0.858
1265	0.8354
1256	0.7028
1247	0.6582
1238	0.6762
1229	0.6126
1220	0.8103
1211	0.7325
1202	0.8146
1193	0.7508
1184	0.7344
1175	0.8056
1166	0.8101
1157	0.5984
1148	0.8063
1139	0.7231
1130	0.8406
1121	0.8702
1112	0.8324
1103	0.8567
1094	0.8733
1085	0.8697
1076	0.8604
1067	0.8645
1058	0.877
1049	0.8831
1040	0.8864
1031	0.8877
1022	0.8873
1013	0.8876
1004	0.8854
995	0.8514
986	0.8752
977	0.8827
968	0.8709
959	0.8212
950	0.8256
941	0.875
932	0.8836
923	0.8835
914	0.8809
905	0.8715
896	0.862
887	0.8126
878	0.7268
869	0.5067
860	0.7793
851	0.7009
842	0.8101
833	0.8615
824	0.8733
815	0.8759
806	0.8823
797	0.886
788	0.8827
779	0.8866
770	0.8854
761	0.8826
752	0.8845
743	0.8838
734	0.8756
725	0.8736
716	0.8653
707	0.8632
698	0.866
689	0.8388
680	0.6761
671	0.7122
662	0.8198
653	0.8424
644	0.7841
635	0.8392
626	0.6039
617	0.7807
608	0.8728
599	0.8928
590	0.8917
581	0.8524
572	0.6118
563	0.3875
554	0.7688
545	0.8586
536	0.8783
527	0.8898
518	0.891
509	0.8863
500	0.8794
491	0.8674
482	0.8509
473	0.8303
464	0.7954
455	0.7765
446	0.7774
437	0.7791
428	0.7812
419	0.7825
