Infrared Spectrum: Propane, 1,2,3-tribromo-
Formula: C 3 H 5 Br 3
CAS: 96-11-7
State: gas
Origin: Sadtler Research Labs Under US-EPA Contract
1/CM	ABSORBANCE
450	0.064558
462	0.0721791
474	0.0144137
486	0.0148003
498	0.00612998
510	0.0169541
522	0.0354544
534	0.0453397
546	0.071903
558	0.248733
570	0.55225
582	0.138725
594	0.0394306
606	0.068976
618	0.140216
630	0.191962
642	0.0734493
654	0.131877
666	0.0881391
678	0.258508
690	0.115807
702	0.0246856
714	0.0346813
726	0.0469965
738	0.0202676
750	0.0134197
762	0.0194392
774	0.00900168
786	0.0167884
798	0.0117077
810	0.0189974
822	0.0189974
834	0.0362276
846	0.119673
858	0.099405
870	0.205161
882	0.116138
894	0.0349022
906	0.0213721
918	0.0135853
930	0.0107689
942	0.0205989
954	0.0799658
966	0.0480457
978	0.0184452
990	0.0268394
1002	0.0283857
1014	0.0147451
1026	0.0126465
1038	0.0130331
1050	0.0135853
1062	0.0128122
1074	0.0223109
1086	0.0279991
1098	0.0129227
1110	0.0391545
1122	0.0460024
1134	0.102387
1146	0.1337
1158	0.158054
1170	0.118458
1182	0.0958706
1194	0.322901
1206	0.144524
1218	0.18169
1230	0.203173
1242	0.315445
1254	0.33864
1266	0.137731
1278	0.0296558
1290	0.0304842
1302	0.0273916
1314	0.0325275
1326	0.093772
1338	0.142646
1350	0.0277782
1362	0.0155735
1374	0.0109345
1386	0.012757
1398	0.0124808
1410	0.0511936
1422	0.233933
1434	0.289048
1446	0.134418
1458	0.0083942
1470	0.00762105
1482	0.0124256
1494	0.0109345
1506	0.00679267
1518	0.0072897
1530	0.00855987
1542	0.0041971
1554	0.00723447
1566	0.0135853
1578	0.00646133
1590	0.00701358
1602	0.00922258
1614	0.0079524
1626	0.00712402
1638	0.00165675
1650	0.00878077
1662	0.00403142
1674	0.0083942
1686	0.00430755
1698	0.0046389
1710	0.0092778
1722	0.0059643
1734	0.0075106
1746	0.00811808
1758	0.00938825
1770	0.006627
1782	0.00690313
1794	0.0053016
1806	0.00867032
1818	0.00557773
1830	0.00601953
1842	0.0072897
1854	0.00612998
1866	0.00784195
1878	0.0070688
1890	0.00800763
1902	0.00723447
1914	0.00966437
1926	0.00983005
1938	0.00342395
1950	0.00717925
1962	0.00563295
1974	0.0079524
1986	0.0064061
1998	0.00806285
2010	0.0041971
2022	0.00579862
2034	0.00646133
2046	0.0109345
2058	0.0090569
2070	0.00767627
2082	0.00635087
2094	0.00828375
2106	0.00955392
2118	0.00822853
2130	0.00878077
2142	0.00381052
2154	0.00430755
2166	0.00734493
2178	0.00612998
2190	0.0094987
2202	0.00624042
2214	0.00867032
2226	0.0046389
2238	0.00712402
2250	0.00850465
2262	0.0083942
2274	0.0139167
2286	0.0109898
2298	0.00955392
2310	0.00822853
2322	0.0109345
2334	0.0055225
2346	0.0075106
2358	0
2370	0.00502547
2382	0.00568818
2394	0.00695835
2406	0.011045
2418	0.00612998
2430	0.00916735
2442	0.0102719
2454	0.00717925
2466	0.0081733
2478	0.0059643
2490	0.00800763
2502	0.00403142
2514	0.00872555
2526	0.00408665
2538	0.0039762
2550	0.00458367
2562	0.00657178
2574	0.00646133
2586	0.00579862
2598	0.00601953
2610	0.00668222
2622	0.00579862
2634	0.00513593
2646	0.00695835
2658	0.00878077
2670	0.00789717
2682	0.00933303
2694	0.0053016
2706	0.00143585
2718	0.00104928
2730	0.00828375
2742	0.0046389
2754	0.0075106
2766	0.00386575
2778	0.00138062
2790	0.0048598
2802	0.0061852
2814	0.00651655
2826	0.0064061
2838	0.0100509
2850	0.00502547
2862	0.0112107
2874	0.00784195
2886	0.00723447
2898	0.00187765
2910	0.00497025
2922	0.0072897
2934	0.00828375
2946	0.0157391
2958	0.0470517
2970	0.103768
2982	0.061852
2994	0.0429098
3006	0.0130331
3018	0.0102719
3030	0.0170093
3042	0.00911213
3054	0.00712402
3066	0.00254035
3078	0.0104928
3090	0.00646133
3102	0.0083942
3114	0.00762105
3126	0.00712402
3138	0.00624042
3150	0.0055225
3162	0.00695835
3174	0.00690313
3186	0.00502547
3198	0.00342395
3210	0.0072897
3222	0.0048598
3234	0.00370008
3246	0.0106584
3258	0.00215378
3270	0.0109898
3282	0.00590907
3294	0.0125361
3306	0.00557773
3318	0.00695835
3330	0.0090569
3342	0.00403142
3354	0.0101614
3366	0.00541205
3378	0.00364485
3390	0.00646133
3402	0.0053016
3414	0.0068479
3426	0.00999573
3438	0.0109345
3450	0.00844942
3462	0.00922258
3474	0.00701358
3486	0.0112659
3498	0.00844942
3510	0.0103823
3522	0.00900168
3534	0.00452845
3546	0.00452845
3558	0.0090569
3570	0.0124256
3582	0.00629565
3594	0.0109345
3606	0.00762105
3618	0.0086151
3630	0.0106032
3642	0.0165123
3654	0.011045
3666	0.00911213
3678	0.00651655
3690	0.0100509
3702	0.0108793
3714	0.00916735
3726	0.0106032
3738	0.00651655
3750	0.00541205
3762	0.0101614
3774	0.0120391
3786	0.015463
3798	0.0094987
3810	0.0178929
3822	0.00673745
3834	0.0129779
3846	0.0140824
3858	0.0130331
3870	0.0163466
3882	0.0111002
3894	0.00977483
3906	0.0090569
3918	0.0182243
3930	0.0173406
3942	0.0148003
3954	0.0006627
3966	0.00127018
