Infrared Spectrum: Methoxyacetone
Formula: C 4 H 8 O 2
CAS: 5878-19-3
State: gas
Instrument: HP-GC/MS/IRD
Origin: NIST Mass Spectrometry Data Center
1/CM	ABSORBANCE
550	0.0007623
562	0.0005715
574	0.0004797
586	0.0002115
598	0.0004275
610	0.0004743
622	0.0003816
634	0.0002601
646	0.0002673
658	3.33e-05
670	9.9e-05
682	6.21e-05
694	0.000162
706	0.0001215
718	9.9e-05
730	0.0002466
742	0.0001458
754	0.0002448
766	0.0003006
778	0.0002538
790	0.0002538
802	0.0001656
814	8.64e-05
826	0.0002007
838	0.0001917
850	0.0002043
862	0.0002169
874	0.000288
886	0.0003204
898	0.0005373
910	0.0006606
922	0.0010017
934	0.0011079
946	0.0013212
958	0.0012411
970	0.0011574
982	0.0009207
994	0.0006624
1006	0.0006246
1018	0.0004005
1030	0.0005661
1042	0.000729
1054	0.0009711
1066	0.0013788
1078	0.0016632
1090	0.0025011
1102	0.00477
1114	0.0078219
1126	0.009
1138	0.0070956
1150	0.0042669
1162	0.0031878
1174	0.0032652
1186	0.0039492
1198	0.0044658
1210	0.0045657
1222	0.0038403
1234	0.0030879
1246	0.0021897
1258	0.0016083
1270	0.0013338
1282	0.0011349
1294	0.0008928
1306	0.0008388
1318	0.000909
1330	0.0013518
1342	0.002214
1354	0.0031392
1366	0.0032481
1378	0.0022572
1390	0.0012924
1402	0.0011124
1414	0.0012843
1426	0.0015246
1438	0.0015291
1450	0.0015075
1462	0.001332
1474	0.0009216
1486	0.000684
1498	0.0005085
1510	0.0004365
1522	0.0004158
1534	0.0003933
1546	0.0004212
1558	0.0003087
1570	0.000351
1582	0.0003762
1594	0.0002988
1606	0.0003015
1618	0.0002889
1630	0.0003258
1642	0.0003303
1654	0.000324
1666	0.0004824
1678	0.0007038
1690	0.0011547
1702	0.0019503
1714	0.0038556
1726	0.0067689
1738	0.0080307
1750	0.0068913
1762	0.0040509
1774	0.0021816
1786	0.0011556
1798	0.000657
1810	0.0004365
1822	0.0003456
1834	0.0002844
1846	0.0002349
1858	0.0002124
1870	0.0001674
1882	0.0001584
1894	0.0001575
1906	0.0001674
1918	0.0001449
1930	0.0001395
1942	0.0001557
1954	0.0001359
1966	0.0001449
1978	0.0001134
1990	0.0001215
2002	0.0001566
2014	0.0001764
2026	0.0001926
2038	0.0001854
2050	0.0002133
2062	0.0002106
2074	0.0002241
2086	0.0002412
2098	0.0001953
2110	0.0002088
2122	0.0002313
2134	0.000198
2146	0.000198
2158	0.0001647
2170	0.0001098
2182	0.0001422
2194	0.0001494
2206	9.18e-05
2218	7.65e-05
2230	9e-05
2242	0.0001008
2254	9e-05
2266	7.02e-05
2278	9.36e-05
2290	8.82e-05
2302	7.74e-05
2314	7.2e-05
2326	3.87e-05
2338	6.93e-05
2350	1.53e-05
2362	1.71e-05
2374	7.74e-05
2386	8.19e-05
2398	7.47e-05
2410	8.64e-05
2422	5.94e-05
2434	7.2e-05
2446	6.12e-05
2458	3.78e-05
2470	0.000108
2482	0.0001062
2494	5.4e-05
2506	2.97e-05
2518	6.3e-05
2530	3.69e-05
2542	8.46e-05
2554	8.91e-05
2566	3.6e-05
2578	8.28e-05
2590	7.2e-05
2602	7.92e-05
2614	4.14e-05
2626	0.0001143
2638	2.7e-05
2650	7.74e-05
2662	7.56e-05
2674	0.0001125
2686	0.0001359
2698	9e-05
2710	0.0001098
2722	0.0001323
2734	0.0001494
2746	0.0002349
2758	0.000261
2770	0.0003033
2782	0.0005049
2794	0.0007416
2806	0.0011475
2818	0.0020187
2830	0.0026595
2842	0.0027999
2854	0.0023688
2866	0.0022392
2878	0.0024408
2890	0.0027414
2902	0.0030267
2914	0.0033696
2926	0.0038412
2938	0.0037998
2950	0.0031428
2962	0.0022959
2974	0.0018873
2986	0.0020241
2998	0.0020457
3010	0.0018387
3022	0.0011871
3034	0.0008523
3046	0.0006192
3058	0.000558
3070	0.00045
3082	0.0004464
3094	0.0003537
3106	0.0003771
3118	0.0001998
3130	0.0001602
3142	0.0001044
3154	0.0001512
3166	0.0001548
3178	0.0001368
3190	0.0001215
3202	7.56e-05
3214	8.46e-05
3226	1.26e-05
3238	9.63e-05
3250	3.87e-05
3262	3.87e-05
3274	1.08e-05
3286	0.000144
3298	6.84e-05
3310	0.000144
3322	9.18e-05
3334	0.0001431
3346	8.46e-05
3358	0.0001845
3370	0.0001062
3382	0.0001404
3394	8.1e-05
3406	0.0001503
3418	0.0001629
3430	0.0001836
3442	0.0002367
3454	0.0003303
3466	0.0003834
3478	0.0002574
3490	0.0001872
3502	0.0002592
3514	0.0002844
3526	0.000117
3538	0.0002286
3550	0.0001422
3562	0.0001899
3574	0.0001053
3586	0.0001881
3598	0.0001548
3610	6.66e-05
3622	0.0001476
3634	0.0001161
3646	9.54e-05
3658	0.0002223
3670	0.0001683
3682	0.0001044
3694	4.59e-05
3706	2.43e-05
3718	0.0001152
3730	0.0001179
3742	5.49e-05
3754	0.0001026
3766	8.1e-05
3778	0.000126
3790	0.0001719
3802	0.0001197
3814	9.99e-05
3826	0.0001953
3838	0.000117
