Infrared Spectrum: Methane, nitro-
Formula: C H3 N O2
CAS: 75-52-5
State: GAS (20 mmHg, N2 ADDED, TOTAL PRESSURE 600 mmHg)
Class: COBLENTZ
Instrument: DOW KBr FOREPRISM-GRATING
Instrument parameters: GRATING CHANGED AT 5.0, 7.5, 15.0 MICRON
Sampling: TRANSMISSION
Path length: 5 CM
Resolution: 2
Origin: DOW CHEMICAL COMPANY
1/CM	TRANSMITTANCE
462	0.844
471	0.841
480	0.8392
489	0.8369
498	0.8416
507	0.8464
516	0.847
525	0.8474
534	0.8483
543	0.8514
552	0.8557
561	0.8578
570	0.8598
579	0.859
588	0.8542
597	0.8492
606	0.7823
615	0.8355
624	0.8289
633	0.7701
642	0.6391
651	0.6431
660	0.4409
669	0.6509
678	0.6691
687	0.8024
696	0.8434
705	0.8508
714	0.8532
723	0.855
732	0.8552
741	0.8553
750	0.8551
759	0.8554
768	0.8558
777	0.8563
786	0.8569
795	0.8571
804	0.8572
813	0.857
822	0.8566
831	0.8555
840	0.8538
849	0.8542
858	0.8582
867	0.8628
876	0.8623
885	0.8525
894	0.8328
903	0.8104
912	0.8183
921	0.6337
930	0.786
939	0.8207
948	0.8619
957	0.8675
966	0.8693
975	0.8707
984	0.8719
993	0.8731
1002	0.8723
1011	0.871
1020	0.87
1029	0.8683
1038	0.8634
1047	0.8533
1056	0.8403
1065	0.8248
1074	0.801
1083	0.768
1092	0.7662
1101	0.7772
1110	0.7881
1119	0.8216
1128	0.8362
1137	0.8373
1146	0.8347
1155	0.8422
1164	0.8469
1173	0.8502
1182	0.8475
1191	0.8505
1200	0.8633
1209	0.8637
1218	0.8724
1227	0.8748
1236	0.8811
1245	0.8745
1254	0.8651
1263	0.8623
1272	0.8614
1281	0.8601
1290	0.8506
1299	0.8413
1308	0.8326
1317	0.8285
1326	0.8207
1335	0.8129
1344	0.7983
1353	0.7436
1362	0.6375
1371	0.4022
1380	0.3795
1389	0.3239
1398	0.25
1407	0.4471
1416	0.4358
1425	0.5805
1434	0.6245
1443	0.605
1452	0.5845
1461	0.6443
1470	0.632
1479	0.612
1488	0.575
1497	0.572
1506	0.5826
1515	0.5592
1524	0.5402
1533	0.5578
1542	0.5101
1551	0.3847
1560	0.1991
1569	0.0371
1578	0.0266
1587	0.082
1596	0.0229
1605	0.0529
1614	0.2701
1623	0.6362
1632	0.7563
1641	0.8185
1650	0.8298
1659	0.8371
1668	0.8414
1677	0.8426
1686	0.8409
1695	0.8454
1704	0.8366
1713	0.844
1722	0.8412
1731	0.8452
1740	0.8424
1749	0.843
1758	0.8427
1767	0.8414
1776	0.842
1785	0.8412
1794	0.8398
1803	0.8398
1812	0.8394
1821	0.8381
1830	0.8374
1839	0.8366
1848	0.8378
1857	0.8387
1866	0.8386
1875	0.84
1884	0.8416
1893	0.8415
1902	0.8412
1911	0.8429
1920	0.8433
1929	0.8422
1938	0.8416
1947	0.8415
1956	0.8415
1965	0.8415
1974	0.8414
1983	0.8398
1992	0.8376
2001	0.8371
2010	0.8387
2019	0.8449
2028	0.8467
2037	0.8464
2046	0.8464
2055	0.846
2064	0.846
2073	0.8478
2082	0.8491
2091	0.85
2100	0.8502
2109	0.8503
2118	0.8503
2127	0.8504
2136	0.8511
2145	0.8517
2154	0.8521
2163	0.8523
2172	0.8522
2181	0.8521
2190	0.8519
2199	0.8516
2208	0.8513
2217	0.8509
2226	0.8509
2235	0.8509
2244	0.8509
2253	0.851
2262	0.8512
2271	0.8514
2280	0.8517
2289	0.8512
2298	0.8506
2307	0.8516
2316	0.8537
2325	0.8565
2334	0.8537
2343	0.8594
2352	0.865
2361	0.8629
2370	0.858
2379	0.856
2388	0.855
2397	0.8553
2406	0.8554
2415	0.8554
2424	0.8546
2433	0.8527
2442	0.85
2451	0.8458
2460	0.8402
2469	0.8345
2478	0.8316
2487	0.8334
2496	0.8348
2505	0.8343
2514	0.8424
2523	0.8503
2532	0.8527
2541	0.855
2550	0.8564
2559	0.8571
2568	0.8569
2577	0.8566
2586	0.8564
2595	0.8564
2604	0.8565
2613	0.8565
2622	0.8566
2631	0.8569
2640	0.8573
2649	0.8576
2658	0.8581
2667	0.8585
2676	0.8591
2685	0.8595
2694	0.8593
2703	0.8583
2712	0.8564
2721	0.8541
2730	0.8501
2739	0.846
2748	0.8416
2757	0.8371
2766	0.8336
2775	0.8344
2784	0.8425
2793	0.8466
2802	0.8511
2811	0.8534
2820	0.8523
2829	0.8518
2838	0.8621
2847	0.8654
2856	0.8593
2865	0.8534
2874	0.8518
2883	0.85
2892	0.8483
2901	0.8486
2910	0.8506
2919	0.8429
2928	0.8196
2937	0.7941
2946	0.7611
2955	0.7422
2964	0.743
2973	0.7675
2982	0.7869
2991	0.8012
3000	0.8152
3009	0.829
3018	0.8382
3027	0.8412
3036	0.8463
3045	0.8482
3054	0.8492
3063	0.8497
3072	0.8495
3081	0.8496
3090	0.8502
3099	0.8506
3108	0.8512
3117	0.8517
3126	0.8522
3135	0.853
3144	0.8539
3153	0.855
3162	0.8564
3171	0.8579
3180	0.8592
3189	0.8604
3198	0.8608
3207	0.8606
3216	0.8601
3225	0.8607
3234	0.863
3243	0.865
3252	0.8661
3261	0.8666
3270	0.8672
3279	0.8673
3288	0.8671
3297	0.868
3306	0.8685
3315	0.8688
3324	0.8691
3333	0.8691
3342	0.8686
3351	0.8677
3360	0.8669
3369	0.8663
3378	0.8681
3387	0.8704
3396	0.8704
3405	0.8701
3414	0.8692
3423	0.8686
3432	0.8684
3441	0.8681
3450	0.8681
3459	0.8679
3468	0.8676
3477	0.8673
3486	0.8672
3495	0.867
3504	0.8672
3513	0.8673
3522	0.8675
3531	0.8677
3540	0.8678
3549	0.868
3558	0.8683
3567	0.8687
3576	0.869
3585	0.8686
3594	0.8673
3603	0.8657
3612	0.8632
3621	0.8648
3630	0.8663
3639	0.8644
3648	0.8662
3657	0.8669
3666	0.864
3675	0.8595
3684	0.8612
3693	0.8648
3702	0.8658
3711	0.868
3720	0.8731
3729	0.876
3738	0.868
3747	0.8659
3756	0.8656
3765	0.8661
3774	0.8704
3783	0.8711
3792	0.8694
