Infrared Spectrum: Methane, nitro-
Formula: C H 3 N O 2
CAS: 75-52-5
State: gas
Origin: Sadtler Research Labs Under US-EPA Contract
1/CM	ABSORBANCE
450	0.0060727
462	0.00459556
474	0.0108324
486	0.00279016
498	0.0106683
510	0.00656508
522	0.0024619
534	0.0024619
546	0.00722159
558	0.00377492
570	0.0100117
582	0.00951937
594	0.0192029
606	0.0452991
618	0.0449708
630	0.130973
642	0.174959
654	0.211396
666	0.123588
678	0.139016
690	0.0395546
702	0.0169051
714	0.0108324
726	0.00902698
738	0.00951937
750	0.00722159
762	0.00656508
774	0.00820635
786	0.00771397
798	0.00820635
810	0.00672921
822	0.00804222
834	0.00804222
846	0.0085346
858	0.00968349
870	0.0126378
882	0.0196952
894	0.0359438
906	0.0415241
918	0.0653225
930	0.0564597
942	0.0359438
954	0.0118171
966	0.0085346
978	0.0113248
990	0.00902698
1002	0.00951937
1014	0.0126378
1026	0.0155921
1038	0.0228137
1050	0.0351232
1062	0.050387
1074	0.0664714
1086	0.0694257
1098	0.0638454
1110	0.0625324
1122	0.0434937
1134	0.0356156
1146	0.0329895
1158	0.0326613
1170	0.0305276
1182	0.0293787
1194	0.024619
1206	0.023306
1218	0.0196952
1230	0.0155921
1242	0.0114889
1254	0.0106683
1266	0.0119813
1278	0.0165768
1290	0.0226495
1302	0.0264244
1314	0.0377492
1326	0.0523565
1338	0.0863308
1350	0.191536
1362	0.356484
1374	0.469075
1386	0.438711
1398	0.591185
1410	0.335311
1422	0.21517
1434	0.166425
1446	0.161993
1458	0.138851
1470	0.158218
1482	0.207785
1494	0.207949
1506	0.225346
1518	0.290012
1530	0.359274
1542	0.599228
1554	1.05501
1566	1.55806
1578	1.52343
1590	1.63405
1602	1.3291
1614	0.545066
1626	0.146237
1638	0.042673
1650	0.019367
1662	0.00935524
1674	0.00672921
1686	0.00377492
1698	0.00459556
1710	0.00574444
1722	0.00475968
1734	0.00475968
1746	0.00508794
1758	0.0042673
1770	0.00311841
1782	0.00295429
1794	0.0024619
1806	0.00262603
1818	0.00262603
1830	0.00311841
1842	0.00311841
1854	0.0024619
1866	0.0018054
1878	0.00196952
1890	0.00164127
1902	0.000984762
1914	0.0018054
1926	0.00164127
1938	0.0018054
1950	0.00262603
1962	0.00229778
1974	0.00295429
1986	0.00328254
1998	0.00410317
2010	0.00508794
2022	0.00590857
2034	0.00574444
2046	0.00574444
2058	0.00508794
2070	0.00377492
2082	0.00213365
2094	0.00131302
2106	0.00114889
2118	0.00114889
2130	0.000820635
2142	0
2154	0.000984762
2166	0
2178	0.000164127
2190	0.00196952
2202	0.00229778
2214	0.00213365
2226	0.0024619
2238	0.00262603
2250	0.00262603
2262	0.00328254
2274	0.00377492
2286	0.00525206
2298	0.00574444
2310	0.00590857
2322	0.0024619
2334	0.00213365
2346	0.00656508
2358	0.000328254
2370	0.00951937
2382	0.00951937
2394	0.00492381
2406	0.00558032
2418	0.00705746
2430	0.00919111
2442	0.0119813
2454	0.0144432
2466	0.0178898
2478	0.0196952
2490	0.0182181
2502	0.0185464
2514	0.0157562
2526	0.0109965
2538	0.0100117
2550	0.00968349
2562	0.00869873
2574	0.0078781
2586	0.00705746
2598	0.00672921
2610	0.00640095
2622	0.00492381
2634	0.00443143
2646	0.00410317
2658	0.00344667
2670	0.00443143
2682	0.00541619
2694	0.00640095
2706	0.00820635
2718	0.00951937
2730	0.0118171
2742	0.0159203
2754	0.0169051
2766	0.0187105
2778	0.0201876
2790	0.0141149
2802	0.0131302
2814	0.00968349
2826	0.00935524
2838	0.00984762
2850	0.0119813
2862	0.0134584
2874	0.0157562
2886	0.0183822
2898	0.0223213
2910	0.03102
2922	0.0415241
2934	0.0538337
2946	0.0671279
2958	0.0759908
2970	0.0666356
2982	0.049074
2994	0.0420165
3006	0.027081
3018	0.0173975
3030	0.0144432
3042	0.0124737
3054	0.01034
3066	0.01034
3078	0.0105041
3090	0.00951937
3102	0.00968349
3114	0.00935524
3126	0.00886286
3138	0.0078781
3150	0.00771397
3162	0.00722159
3174	0.00623683
3186	0.00590857
3198	0.00443143
3210	0.00541619
3222	0.00492381
3234	0.00443143
3246	0.0042673
3258	0.00443143
3270	0.00492381
3282	0.00492381
3294	0.00492381
3306	0.00475968
3318	0.00525206
3330	0.0042673
3342	0.00525206
3354	0.00377492
3366	0.00443143
3378	0.00344667
3390	0.00475968
3402	0.00410317
3414	0.00311841
3426	0.00475968
3438	0.00344667
3450	0.00492381
3462	0.00377492
3474	0.00459556
3486	0.00295429
3498	0.00361079
3510	0.00443143
3522	0.0042673
3534	0.00344667
3546	0.00475968
3558	0.00443143
3570	0.00492381
3582	0.00475968
3594	0.00361079
3606	0.00328254
3618	0.00508794
3630	0.00590857
3642	0.00475968
3654	0.00722159
3666	0.0078781
3678	0.00492381
3690	0.00574444
3702	0.00410317
3714	0.00738572
3726	0.00541619
3738	0.00705746
3750	0.00508794
3762	0.00541619
3774	0.00837048
3786	0.00541619
3798	0.00541619
3810	0.00672921
3822	0.00771397
3834	0.00508794
3846	0.00820635
3858	0.0114889
3870	0.00672921
3882	0.0060727
3894	0.00558032
3906	0.00689333
3918	0.00361079
3930	0.00902698
3942	0.00443143
3954	0.00443143
3966	0.00443143
