Infrared Spectrum: 2-Methyl-1,3-butadiene
Formula: C 5 H 8
CAS: 78-79-5
State: gas
Instrument: HP-GC/MS/IRD
Origin: NIST Mass Spectrometry Data Center
1/CM	ABSORBANCE
550	0.0004968
562	0.0001056
574	0.0001536
586	2.64e-05
598	3.12e-05
610	4.56e-05
622	0.0001656
634	0.000276
646	0.0001728
658	0.000324
670	0.0001992
682	0.00012
694	0.0001056
706	0.0001296
718	0.0001776
730	0.0002712
742	0.0002976
754	0.0003744
766	0.0002952
778	0.0003216
790	7.68e-05
802	0.000204
814	0.0002952
826	0.0003384
838	0.0008088
850	0.0020736
862	0.0053184
874	0.009804
886	0.016716
898	0.0194232
910	0.0189336
922	0.01254
934	0.00714
946	0.0037416
958	0.0032208
970	0.00378
982	0.0054912
994	0.0051192
1006	0.0036408
1018	0.0025872
1030	0.0013776
1042	0.0010992
1054	0.0016176
1066	0.0014568
1078	0.001212
1090	0.0007944
1102	0.000348
1114	0.0001752
1126	0.00018
1138	0.0001656
1150	0.0001392
1162	0.0001512
1174	0.0001608
1186	0.0002712
1198	0.000192
1210	0.0002928
1222	0.0003696
1234	0.000492
1246	0.0005904
1258	0.000672
1270	0.0006288
1282	0.0007272
1294	0.0008232
1306	0.0008064
1318	0.000768
1330	0.0007056
1342	0.0008736
1354	0.0014088
1366	0.0022992
1378	0.002916
1390	0.0039048
1402	0.0037656
1414	0.0035952
1426	0.0034104
1438	0.0034344
1450	0.0032496
1462	0.0027408
1474	0.0023424
1486	0.0016608
1498	0.0010296
1510	0.0008064
1522	0.0007392
1534	0.0008112
1546	0.0009456
1558	0.0015672
1570	0.0035136
1582	0.0066144
1594	0.0079944
1606	0.007908
1618	0.0056424
1630	0.0028776
1642	0.001992
1654	0.0014688
1666	0.0008136
1678	0.0004272
1690	0.0002832
1702	0.0002376
1714	0.0002952
1726	0.0003408
1738	0.0003456
1750	0.0004584
1762	0.000888
1774	0.0017136
1786	0.002292
1798	0.0028248
1810	0.0025584
1822	0.00192
1834	0.001428
1846	0.0007656
1858	0.0004128
1870	0.0002232
1882	0.0002088
1894	0.0001704
1906	0.0001752
1918	0.000156
1930	0.0001488
1942	0.0001704
1954	0.0001992
1966	0.0001944
1978	0.0002088
1990	0.0001344
2002	0.00012
2014	9.36e-05
2026	0.0001032
2038	0.000132
2050	0.000144
2062	0.0001344
2074	0.000144
2086	0.0001128
2098	9.36e-05
2110	9.84e-05
2122	8.4e-05
2134	0.00012
2146	0.0001224
2158	0.0001032
2170	7.92e-05
2182	4.56e-05
2194	4.08e-05
2206	2.16e-05
2218	4.56e-05
2230	6e-05
2242	7.68e-05
2254	9.6e-05
2266	7.44e-05
2278	6.72e-05
2290	6.72e-05
2302	0.0001176
2314	0.0001104
2326	0.0001032
2338	9.12e-05
2350	0.0001392
2362	6e-05
2374	0.0001104
2386	0.0001584
2398	0.0001416
2410	0.0001368
2422	0.0001224
2434	0.00012
2446	0.00012
2458	0.0001032
2470	0.0001152
2482	0.0001104
2494	9.6e-05
2506	9.6e-05
2518	9.84e-05
2530	8.88e-05
2542	0.0001248
2554	0.0001152
2566	8.4e-05
2578	9.6e-05
2590	0.0001104
2602	0.0001512
2614	0.0001104
2626	0.0001152
2638	0.00012
2650	0.0001176
2662	9.12e-05
2674	0.0001608
2686	0.0001416
2698	0.0001728
2710	0.0002184
2722	0.0002856
2734	0.0003096
2746	0.0003792
2758	0.000372
2770	0.0003168
2782	0.0003624
2794	0.000396
2806	0.0005328
2818	0.0006384
2830	0.0007488
2842	0.0011088
2854	0.0017136
2866	0.002244
2878	0.002784
2890	0.0033624
2902	0.0041424
2914	0.0052368
2926	0.0064248
2938	0.0069408
2950	0.0082248
2962	0.0094368
2974	0.0104736
2986	0.0109248
2998	0.0104208
3010	0.0079488
3022	0.0059616
3034	0.0048096
3046	0.003972
3058	0.0045816
3070	0.0069216
3082	0.0097176
3094	0.0096552
3106	0.0085848
3118	0.0043488
3130	0.0016656
3142	0.0009216
3154	0.0006408
3166	0.0004344
3178	0.0003312
3190	0.0002592
3202	0.000288
3214	0.0002616
3226	0.0002112
3238	0.0002688
3250	0.0001896
3262	0.0001032
3274	0.0001704
3286	0.0001368
3298	4.56e-05
3310	0.000144
3322	7.92e-05
3334	0.0001272
3346	0.0001608
3358	9.84e-05
3370	0.0001368
3382	0.0002016
3394	0.0001968
3406	0.0001464
3418	0.0001584
3430	0.0001416
3442	0.0001296
3454	6.96e-05
3466	0.000132
3478	0.0001656
3490	0.0001632
3502	0.000192
3514	0.0001896
3526	0.000168
3538	0.000228
3550	0.0001392
3562	0.0001656
3574	0.00018
3586	0.0001656
3598	0.000144
3610	9.6e-06
3622	8.4e-05
3634	0.0002088
3646	7.44e-05
3658	0.0001128
3670	8.16e-05
3682	0.00018
3694	0.0001344
3706	0.0001512
3718	0.0002304
3730	8.88e-05
3742	4.32e-05
3754	0.0001176
3766	0.0001968
3778	0.0001896
3790	0.0001464
3802	0.0001488
3814	0.0002232
3826	0.0001368
3838	0.000132
