Infrared Spectrum: Acetic acid, mercapto-
Formula: C 2 H 4 O 2 S
CAS: 68-11-1
State: gas
Origin: Sadtler Research Labs Under US-EPA Contract
1/CM	ABSORBANCE
450	0.0233518
462	0.021833
474	0.0280348
486	0.030756
498	0.0501842
510	0.0672076
522	0.0850537
534	0.083788
546	0.0848638
558	0.0858131
570	0.116506
582	0.140617
594	0.151755
606	0.149097
618	0.132137
630	0.113658
642	0.0994824
654	0.0984066
666	0.107013
678	0.0928376
690	0.0625246
702	0.0434761
714	0.0294271
726	0.0299966
738	0.0293005
750	0.033414
762	0.0225924
774	0.0166437
786	0.0144288
798	0.0136693
810	0.0122771
822	0.0148717
834	0.0186055
846	0.0139225
858	0.0156311
870	0.01715
882	0.0159476
894	0.0166437
906	0.0122771
918	0.0108848
930	0.0112013
942	0.0124037
954	0.0152514
966	0.0192383
978	0.0255667
990	0.0285411
1002	0.0293005
1014	0.0230987
1026	0.0225924
1038	0.0236682
1050	0.0286677
1062	0.041008
1074	0.0694225
1086	0.142262
1098	0.289334
1110	0.476972
1122	0.52203
1134	0.393247
1146	0.200231
1158	0.136567
1170	0.114164
1182	0.114164
1194	0.124733
1206	0.118404
1218	0.094483
1230	0.0713211
1242	0.0661951
1254	0.0655622
1266	0.0637903
1278	0.0567025
1290	0.0514499
1302	0.0566392
1314	0.0737891
1326	0.0968878
1338	0.121822
1350	0.124606
1362	0.10214
1374	0.0654357
1386	0.0365782
1398	0.0313256
1410	0.0410713
1422	0.0518296
1434	0.0485388
1446	0.0277817
1458	0.017593
1470	0.0115177
1482	0.00930275
1494	0.00873319
1506	0.00468302
1518	0.00696124
1530	0.00620183
1542	0.00329077
1554	0.00461973
1566	0.00379704
1578	0.00335405
1590	0.00563228
1602	0.00550571
1614	0.00379704
1626	0.00461973
1638	0.00360719
1650	0.00348062
1662	0.00582213
1674	0.00601198
1686	0.00904961
1698	0.0141756
1710	0.035439
1722	0.058158
1734	0.08556
1746	0.132643
1758	0.235796
1770	0.44457
1782	0.63284
1794	0.63265
1806	0.404575
1818	0.155109
1830	0.0498678
1842	0.0205673
1854	0.010695
1866	0.00759408
1878	0.00601198
1890	0.00537914
1902	0.00455645
1914	0.00398689
1926	0.00424003
1938	0.00424003
1950	0.00430331
1962	0.00487287
1974	0.00556899
1986	0.00575884
1998	0.00601198
2010	0.00487287
2022	0.00329077
2034	0.00272121
2046	0.00208837
2058	0.00221494
2070	0.00208837
2082	0.00215166
2094	0.00215166
2106	0.00177195
2118	0.00227822
2130	0.00189852
2142	0.00189852
2154	0.00177195
2166	0.00164538
2178	0.00215166
2190	0.00259464
2202	0.00335405
2214	0.00341734
2226	0.00373376
2238	0.00310092
2250	0.00310092
2262	0.00240479
2274	0.00240479
2286	0.0027845
2298	0.0043666
2310	0.00487287
2322	0.00284778
2334	0.00177195
2346	0.0035439
2358	0.00189852
2370	0.00170867
2382	0.00405018
2394	0.00297435
2406	0.00272121
2418	0.0031642
2430	0.00386032
2442	0.00405018
2454	0.00405018
2466	0.0043666
2478	0.00386032
2490	0.00367047
2502	0.00322748
2514	0.00341734
2526	0.0031642
2538	0.00322748
2550	0.00348062
2562	0.00310092
2574	0.00392361
2586	0.00569556
2598	0.00613855
2610	0.00575884
2622	0.00392361
2634	0.0035439
2646	0.00398689
2658	0.00398689
2670	0.00430331
2682	0.00449316
2694	0.00373376
2706	0.00360719
2718	0.00373376
2730	0.00386032
2742	0.00360719
2754	0.00392361
2766	0.00398689
2778	0.00468302
2790	0.00461973
2802	0.00506272
2814	0.00480958
2826	0.00537914
2838	0.00569556
2850	0.00518929
2862	0.00613855
2874	0.00550571
2886	0.00702452
2898	0.00816364
2910	0.00936603
2922	0.0125935
2934	0.0163906
2946	0.0220228
2958	0.022276
2970	0.0195548
2982	0.0150616
2994	0.0122138
3006	0.011138
3018	0.010252
3030	0.00993559
3042	0.00841677
3054	0.00797378
3066	0.00822692
3078	0.00784722
3090	0.00740423
3102	0.00702452
3114	0.00715109
3126	0.00727766
3138	0.00727766
3150	0.0067081
3162	0.00727766
3174	0.00721438
3186	0.00715109
3198	0.00708781
3210	0.00677139
3222	0.00620183
3234	0.00721438
3246	0.00727766
3258	0.00651825
3270	0.00588541
3282	0.00607526
3294	0.0059487
3306	0.00607526
3318	0.00658154
3330	0.00613855
3342	0.00658154
3354	0.00645497
3366	0.00639168
3378	0.00658154
3390	0.00645497
3402	0.00721438
3414	0.00772065
3426	0.00721438
3438	0.00898633
3450	0.011138
3462	0.0130365
3474	0.012024
3486	0.0113911
3498	0.0103153
3510	0.011138
3522	0.0127834
3534	0.0161374
3546	0.0246175
3558	0.0570822
3570	0.216558
3582	0.230037
3594	0.168905
3606	0.0315787
3618	0.0137326
3630	0.00822692
3642	0.00696124
3654	0.00772065
3666	0.00740423
3678	0.00468302
3690	0.00215166
3702	0.0059487
3714	0.00373376
3726	0.00588541
3738	0.00341734
3750	0.000126568
3762	0.00537914
3774	0.00563228
3786	0.00563228
3798	0.00392361
3810	0.00398689
3822	0.000189852
3834	0.00322748
3846	0.00582213
3858	0.00202509
3870	0.00107583
3882	0.0047463
3894	0.00588541
3906	0.00518929
3918	0.00493615
3930	0.00582213
3942	0.00531586
3954	0.00487287
3966	0.00588541
