Infrared Spectrum: 2-AMINO-1,3,4-THIADIAZOLE
Formula: C2 H3 N3 S
CAS: 4005-51-0
State: SOLID (KBr PELLET)
Class: COBLENTZ
Instrument: Not specified, most likely a prism, grating, or hybrid spectrometer.
Sampling: TRANSMISSION
Resolution: 4
Origin: TENNESSEE EASTMAN COMPANY, RESEARCH LABORATORIES
MICROMETERS	TRANSMITTANCE
2.068	0.852
2.10906	0.858
2.15011	0.859
2.19117	0.863
2.23223	0.87
2.27329	0.88
2.31434	0.887
2.3554	0.894
2.39646	0.899
2.43752	0.907
2.47857	0.911
2.51963	0.912
2.56069	0.917
2.60175	0.923
2.6428	0.928
2.68386	0.933
2.72492	0.936
2.76597	0.926
2.80703	0.897
2.84809	0.842
2.88915	0.798
2.9302	0.656
2.97126	0.381
3.01232	0.152
3.05338	0.099
3.09443	0.186
3.13549	0.3
3.17655	0.266
3.2176	0.157
3.25866	0.157
3.29972	0.439
3.34078	0.512
3.38183	0.56
3.42289	0.682
3.46395	0.764
3.50501	0.789
3.54606	0.844
3.58712	0.827
3.62818	0.808
3.66924	0.822
3.71029	0.885
3.75135	0.921
3.79241	0.923
3.83346	0.923
3.87452	0.941
3.91558	0.95
3.95664	0.953
3.99769	0.955
4.03875	0.953
4.07981	0.952
4.12087	0.948
4.16192	0.948
4.20298	0.95
4.24404	0.948
4.28509	0.943
4.32615	0.938
4.36721	0.94
4.40827	0.941
4.44932	0.941
4.49038	0.953
4.53144	0.953
4.5725	0.953
4.61355	0.953
4.65461	0.953
4.69567	0.955
4.73673	0.957
4.77778	0.955
4.81884	0.955
4.8599	0.952
4.90095	0.95
4.94201	0.95
4.98307	0.953
5.02413	0.97
5.06518	0.979
5.10624	0.979
5.1473	0.981
5.18836	0.984
5.22941	0.982
5.27047	0.982
5.31153	0.984
5.35258	0.988
5.39364	0.988
5.4347	0.988
5.47576	0.984
5.51681	0.979
5.55787	0.982
5.59893	0.981
5.63999	0.969
5.68104	0.967
5.7221	0.953
5.76316	0.935
5.80422	0.928
5.84527	0.923
5.88633	0.912
5.92739	0.904
5.96844	0.904
6.0095	0.88
6.05056	0.851
6.09162	0.801
6.13267	0.726
6.17373	0.374
6.21479	0.341
6.25585	0.673
6.2969	0.735
6.33796	0.755
6.37902	0.77
6.42007	0.723
6.46113	0.682
6.50219	0.444
6.54325	0.17
6.5843	0.027
6.62536	0.124
6.66642	0.488
6.70748	0.697
6.74853	0.758
6.78959	0.767
6.83065	0.801
6.87171	0.524
6.91276	0.403
6.95382	0.702
6.99488	0.837
7.03593	0.846
7.07699	0.835
7.11805	0.834
7.15911	0.832
7.20016	0.82
7.24122	0.712
7.28228	0.632
7.32334	0.743
7.36439	0.805
7.40545	0.801
7.44651	0.717
7.48757	0.601
7.52862	0.647
7.56968	0.716
7.61074	0.755
7.65179	0.789
7.69285	0.805
7.73391	0.811
7.77497	0.818
7.81602	0.823
7.85708	0.83
7.89814	0.827
7.9392	0.823
7.98025	0.818
8.02131	0.817
8.06237	0.813
8.10342	0.82
8.14448	0.818
8.18554	0.794
8.2266	0.721
8.26765	0.762
8.30871	0.774
8.34977	0.776
8.39083	0.774
8.43188	0.769
8.47294	0.76
8.514	0.752
8.55506	0.738
8.59611	0.728
8.63717	0.709
8.67823	0.69
8.71928	0.649
8.76034	0.623
8.8014	0.654
8.84246	0.712
8.88351	0.752
8.92457	0.764
8.96563	0.769
9.00669	0.77
9.04774	0.774
9.0888	0.776
9.12986	0.774
9.17091	0.77
9.21197	0.774
9.25303	0.774
9.29409	0.772
9.33514	0.77
9.3762	0.776
9.41726	0.772
9.45832	0.769
9.49937	0.755
9.54043	0.741
9.58149	0.726
9.62255	0.705
9.6636	0.664
9.70466	0.545
9.74572	0.275
9.78677	0.297
9.82783	0.552
9.86889	0.729
9.90995	0.791
9.951	0.82
9.99206	0.83
10.0331	0.841
10.0742	0.846
10.1152	0.849
10.1563	0.852
10.1973	0.858
10.2384	0.859
10.2795	0.863
10.3205	0.863
10.3616	0.868
10.4026	0.873
10.4437	0.873
10.4847	0.875
10.5258	0.876
10.5669	0.882
10.6079	0.885
10.649	0.888
10.69	0.89
10.7311	0.894
10.7721	0.895
10.8132	0.899
10.8543	0.9
10.8953	0.9
10.9364	0.9
10.9774	0.899
11.0185	0.894
11.0596	0.863
11.1006	0.806
11.1417	0.666
11.1827	0.396
11.2238	0.376
11.2648	0.634
11.3059	0.776
11.347	0.861
11.388	0.897
11.4291	0.931
11.4701	0.948
11.5112	0.958
11.5522	0.964
11.5933	0.967
11.6344	0.97
11.6754	0.974
11.7165	0.976
11.7575	0.977
11.7986	0.977
11.8396	0.979
11.8807	0.979
11.9218	0.979
11.9628	0.977
12.0039	0.977
12.0449	0.977
12.086	0.976
12.127	0.976
12.1681	0.969
12.2092	0.964
12.2502	0.962
12.2913	0.958
12.3323	0.958
12.3734	0.953
12.4144	0.947
12.4555	0.941
12.4966	0.94
12.5376	0.931
12.5787	0.921
12.6197	0.899
12.6608	0.806
12.7018	0.617
12.7429	0.574
12.784	0.731
12.825	0.76
12.8661	0.627
12.9071	0.673
12.9482	0.75
12.9892	0.712
13.0303	0.772
13.0714	0.842
13.1124	0.863
13.1535	0.871
13.1945	0.878
13.2356	0.878
13.2766	0.878
13.3177	0.875
13.3588	0.871
13.3998	0.87
13.4409	0.868
13.4819	0.861
13.523	0.858
13.564	0.851
13.6051	0.846
13.6462	0.839
13.6872	0.825
13.7283	0.82
13.7693	0.813
13.8104	0.803
13.8514	0.796
13.8925	0.791
13.9336	0.777
13.9746	0.764
14.0157	0.752
14.0567	0.743
14.0978	0.731
14.1388	0.716
14.1799	0.705
14.221	0.694
14.262	0.678
14.3031	0.666
14.3441	0.649
14.3852	0.632
14.4263	0.605
14.4673	0.591
14.5084	0.562
14.5494	0.512
14.5905	0.475
14.6315	0.463
14.6726	0.492
14.7137	0.529
14.7547	0.569
14.7958	0.594
14.8368	0.611
14.8779	0.622
14.9189	0.629
14.96	0.634
15.0011	0.637
15.0421	0.644
15.0832	0.647
15.1242	0.651
15.1653	0.651
15.2063	0.651
15.2474	0.646
15.2885	0.639
15.3295	0.637
15.3706	0.634
15.4116	0.63
15.4527	0.623
15.4937	0.618
15.5348	0.61
15.5759	0.603
15.6169	0.605
15.658	0.6
15.699	0.598
15.7401	0.593
15.7811	0.588
15.8222	0.579
15.8633	0.574
15.9043	0.57
15.9454	0.567
15.9864	0.564
