Infrared Spectrum: Trimethylamine
Formula: C 3 H 9 N
CAS: 75-50-3
State: gas
Origin: Sadtler Research Labs Under US-EPA Contract
1/CM	ABSORBANCE
450	0.023576
462	0.0162203
474	0.00924179
486	0.0094304
498	0.0101848
510	0.0113165
522	0.00792154
534	0.00924179
546	0.00509242
558	0.00320634
570	0.00509242
582	0.00452659
594	0.00358355
606	0.00188608
618	0.00339494
630	0.00339494
642	0.00414938
654	0.00132026
666	0.00358355
678	0.00377216
690	0.00188608
702	0.0047152
714	0.00282912
726	0.00320634
738	0.00207469
750	0.00433798
762	0.00509242
774	0.0122595
786	0.0407393
798	0.0869483
810	0.100717
822	0.347039
834	0.0841192
846	0.147114
858	0.0662014
870	0.0199924
882	0.00961901
894	0.0047152
906	0.0022633
918	0.00358355
930	0.00320634
942	0.00339494
954	0.00320634
966	0.00377216
978	0.00678989
990	0.0164089
1002	0.0528102
1014	0.160317
1026	0.313466
1038	0.404187
1050	0.378159
1062	0.375896
1074	0.184081
1086	0.144851
1098	0.134666
1110	0.145228
1122	0.128442
1134	0.0528102
1146	0.0531875
1158	0.0826103
1170	0.109581
1182	0.305734
1194	0.114296
1206	0.12599
1218	0.0511128
1230	0.0282912
1242	0.0579027
1254	0.156733
1266	0.298755
1278	0.278197
1290	0.192569
1302	0.0743116
1314	0.0256507
1326	0.0124481
1338	0.00641267
1350	0.00584685
1362	0.010562
1374	0.0177292
1386	0.0311203
1398	0.0390419
1410	0.0477178
1422	0.10298
1434	0.204074
1446	0.334402
1458	0.512448
1470	0.332893
1482	0.358167
1494	0.18974
1506	0.114862
1518	0.0563938
1530	0.0269709
1542	0.0179178
1554	0.0094304
1566	0.00509242
1578	0.00433798
1590	0.00320634
1602	0.0047152
1614	0.00754432
1626	0.00980762
1638	0.0109393
1650	0.0113165
1662	0.00848736
1674	0.00867597
1686	0.00754432
1698	0.00735571
1710	0.00678989
1722	0.00641267
1734	0.00584685
1746	0.00452659
1758	0.00414938
1770	0.00358355
1782	0.00207469
1794	0.00113165
1806	0.00113165
1818	0.00301773
1830	0.00490381
1842	0.00924179
1854	0.0126367
1866	0.0135798
1878	0.0128253
1890	0.00754432
1902	0.00339494
1914	0.00301773
1926	0.00301773
1938	0.00301773
1950	0.00282912
1962	0.00169747
1974	0.00320634
1986	0.00490381
1998	0.00792154
2010	0.00754432
2022	0.00603546
2034	0.00490381
2046	0.00414938
2058	0.00773293
2070	0.0149
2082	0.0220671
2094	0.0231988
2106	0.0175405
2118	0.00867597
2130	0.00433798
2142	0.00207469
2154	0.00132026
2166	0.00094304
2178	0.000565824
2190	0.000188608
2202	0.00132026
2214	0.000188608
2226	0.000377216
2238	0.000565824
2250	0.00113165
2262	0.00188608
2274	0.00414938
2286	0.00490381
2298	0.00678989
2310	0.00641267
2322	0.00603546
2334	0.00603546
2346	0.00414938
2358	0.00339494
2370	0.00414938
2382	0.00377216
2394	0.00282912
2406	0.00282912
2418	0.00339494
2430	0.00490381
2442	0.0069785
2454	0.00924179
2466	0.0126367
2478	0.0160317
2490	0.0215013
2502	0.0335722
2514	0.0275368
2526	0.0262165
2538	0.022633
2550	0.018295
2562	0.0167861
2574	0.0156545
2586	0.0145228
2598	0.0133912
2610	0.0133912
2622	0.0133912
2634	0.0158431
2646	0.0143342
2658	0.0132026
2670	0.0156545
2682	0.0286684
2694	0.065447
2706	0.13957
2718	0.23029
2730	0.364013
2742	0.62731
2754	1.07865
2766	1.08582
2778	1.83308
2790	1.13731
2802	1.00736
2814	0.721048
2826	1.34572
2838	0.629385
2850	0.598265
2862	0.408525
2874	0.508487
2886	0.422859
2898	0.479442
2910	0.461524
2922	0.597133
2934	0.876084
2946	1.00226
2958	1.30253
2970	1.31177
2982	1.04979
2994	0.73444
3006	0.334025
3018	0.0867597
3030	0.0409279
3042	0.0326292
3054	0.0286684
3066	0.0264051
3078	0.0269709
3090	0.0264051
3102	0.0262165
3114	0.0262165
3126	0.0243304
3138	0.0224444
3150	0.0199924
3162	0.0199924
3174	0.0203697
3186	0.022633
3198	0.0239532
3210	0.0231988
3222	0.0203697
3234	0.0164089
3246	0.0113165
3258	0.00641267
3270	0.00414938
3282	0.00433798
3294	0.00339494
3306	0.00301773
3318	0.00339494
3330	0.00282912
3342	0.00264051
3354	0.00320634
3366	0.0047152
3378	0.00622406
3390	0.00641267
3402	0.00999622
3414	0.00735571
3426	0.00546963
3438	0.00377216
3450	0.00207469
3462	0.00169747
3474	0.0022633
3486	0.00132026
3498	0.00150886
3510	0.00113165
3522	0.00113165
3534	0.00207469
3546	0.00113165
3558	0.00150886
3570	0.00339494
3582	0.00414938
3594	0.0022633
3606	0.00320634
3618	0.00301773
3630	0.00207469
3642	0.00150886
3654	0.00264051
3666	0.00169747
3678	0.000565824
3690	0.00188608
3702	0.00188608
3714	0.00169747
3726	0.000565824
3738	0.00113165
3750	0.000377216
3762	0.0022633
3774	0.00320634
3786	0.00433798
3798	0.00339494
3810	0.00678989
3822	0.0069785
3834	0.00622406
3846	0.00414938
3858	0.00414938
3870	0.00414938
3882	0.00188608
3894	0.00169747
3906	0.00207469
3918	0.00113165
3930	0.00282912
3942	0.00301773
3954	0.00414938
3966	0.00433798
