Infrared Spectrum: Trimethylamine
Formula: C3 H9 N
CAS: 75-50-3
State: GAS (100 mmHg, N2 ADDED, TOTAL PRESSURE 600 mmHg)
Class: COBLENTZ
Instrument: DOW KBr FOREPRISM-GRATING
Instrument parameters: GRATING CHANGED AT 5.0, 7.5, 15.0 MICRON
Sampling: TRANSMISSION
Path length: 5 CM
Resolution: 2
Origin: DOW CHEMICAL COMPANY
1/CM	TRANSMITTANCE
462	0.8426
471	0.8493
480	0.8513
489	0.8509
498	0.8519
507	0.851
516	0.8513
525	0.8509
534	0.8482
543	0.8609
552	0.8655
561	0.873
570	0.8784
579	0.8789
588	0.8804
597	0.882
606	0.8831
615	0.8824
624	0.8838
633	0.8824
642	0.8739
651	0.8663
660	0.8677
669	0.8468
678	0.8515
687	0.8442
696	0.837
705	0.8333
714	0.8181
723	0.8033
732	0.8039
741	0.8249
750	0.8304
759	0.8426
768	0.8532
777	0.851
786	0.8228
795	0.7263
804	0.5818
813	0.5331
822	0.3518
831	0.6077
840	0.4474
849	0.4067
858	0.6765
867	0.7882
876	0.8401
885	0.8719
894	0.882
903	0.8856
912	0.8865
921	0.8863
930	0.8867
939	0.8891
948	0.8911
957	0.8904
966	0.8864
975	0.8898
984	0.8793
993	0.8585
1002	0.8244
1011	0.7019
1020	0.3666
1029	0.1495
1038	0.1134
1047	0.1227
1056	0.0971
1065	0.3007
1074	0.5886
1083	0.5087
1092	0.4245
1101	0.3499
1110	0.3898
1119	0.4967
1128	0.739
1137	0.7973
1146	0.7791
1155	0.6599
1164	0.5383
1173	0.513
1182	0.1644
1191	0.517
1200	0.4064
1209	0.535
1218	0.708
1227	0.7937
1236	0.8005
1245	0.734
1254	0.5464
1263	0.2494
1272	0.1795
1281	0.1733
1290	0.3521
1299	0.5847
1308	0.7124
1317	0.8193
1326	0.8542
1335	0.866
1344	0.8696
1353	0.8618
1362	0.8493
1371	0.835
1380	0.7653
1389	0.7177
1398	0.7312
1407	0.7531
1416	0.7198
1425	0.5759
1434	0.4052
1443	0.107
1452	0.1125
1461	0.0579
1470	0.1479
1479	0.1072
1488	0.2478
1497	0.4034
1506	0.5506
1515	0.7258
1524	0.7917
1533	0.7996
1542	0.8164
1551	0.8413
1560	0.8477
1569	0.8632
1578	0.8728
1587	0.875
1596	0.8728
1605	0.8688
1614	0.8616
1623	0.8543
1632	0.8449
1641	0.8449
1650	0.8319
1659	0.8521
1668	0.8439
1677	0.85
1686	0.8456
1695	0.829
1704	0.804
1713	0.7912
1722	0.7953
1731	0.8261
1740	0.844
1749	0.8497
1758	0.8587
1767	0.8634
1776	0.8624
1785	0.8651
1794	0.8708
1803	0.8746
1812	0.8755
1821	0.8746
1830	0.8719
1839	0.8614
1848	0.8437
1857	0.8295
1866	0.8181
1875	0.8211
1884	0.8293
1893	0.8572
1902	0.869
1911	0.869
1920	0.8692
1929	0.8695
1938	0.8681
1947	0.8742
1956	0.8816
1965	0.8807
1974	0.8771
1983	0.8716
1992	0.8647
2001	0.855
2010	0.844
2019	0.8468
2028	0.8586
2037	0.862
2046	0.872
2055	0.8747
2064	0.8676
2073	0.8518
2082	0.8298
2091	0.7945
2100	0.7817
2109	0.784
2118	0.813
2127	0.8558
2136	0.8672
2145	0.8734
2154	0.8766
2163	0.8794
2172	0.8801
2181	0.88
2190	0.8792
2199	0.8774
2208	0.875
2217	0.873
2226	0.8709
2235	0.8706
2244	0.8703
2253	0.87
2262	0.8684
2271	0.8603
2280	0.8518
2289	0.8414
2298	0.8287
2307	0.812
2316	0.7935
2325	0.7767
2334	0.7717
2343	0.7774
2352	0.784
2361	0.7926
2370	0.811
2379	0.8415
2388	0.864
2397	0.8722
2406	0.8735
2415	0.8739
2424	0.8721
2433	0.8669
2442	0.8596
2451	0.8497
2460	0.8384
2469	0.8266
2478	0.8153
2487	0.8008
2496	0.7503
2505	0.7682
2514	0.7754
2523	0.7879
2532	0.802
2541	0.8125
2550	0.8202
2559	0.826
2568	0.8311
2577	0.835
2586	0.838
2595	0.8407
2604	0.8407
2613	0.8391
2622	0.8334
2631	0.8234
2640	0.8208
2649	0.8374
2658	0.8405
2667	0.8394
2676	0.8299
2685	0.8095
2694	0.7445
2703	0.6029
2712	0.4644
2721	0.3291
2730	0.2204
2739	0.0593
2748	0.0736
2757	0.0001
2766	0
2775	0
2784	0
2793	0.0063
2802	0.0202
2811	0.0392
2820	0.0242
2829	0.0224
2838	0.0408
2847	0.0478
2856	0.1799
2865	0.1608
2874	0.081
2883	0.1359
2892	0.1072
2901	0.1256
2910	0.1203
2919	0.1011
2928	0.0552
2937	0.0062
2946	0.0001
2955	0
2964	0.0001
2973	0.0001
2982	0.0086
2991	0.0187
3000	0.0727
3009	0.5757
3018	0.7207
3027	0.7655
3036	0.7827
3045	0.7931
3054	0.8004
3063	0.8039
3072	0.8027
3081	0.7993
3090	0.7981
3099	0.7994
3108	0.8011
3117	0.8006
3126	0.8002
3135	0.8047
3144	0.8141
3153	0.8241
3162	0.8266
3171	0.8217
3180	0.8102
3189	0.8
3198	0.7956
3207	0.797
3216	0.7997
3225	0.8093
3234	0.823
3243	0.8365
3252	0.8499
3261	0.8626
3270	0.8697
3279	0.8727
3288	0.873
3297	0.8734
3306	0.8736
3315	0.8737
3324	0.8733
3333	0.8727
3342	0.8717
3351	0.8705
3360	0.8685
3369	0.8609
3378	0.8572
3387	0.8538
3396	0.8504
3405	0.8565
3414	0.8659
3423	0.8745
3432	0.879
3441	0.8804
3450	0.8805
3459	0.8813
3468	0.8822
3477	0.8832
3486	0.8842
3495	0.8851
3504	0.8875
3513	0.8893
3522	0.891
3531	0.8912
3540	0.8902
3549	0.8888
3558	0.8867
3567	0.884
3576	0.8835
3585	0.8785
3594	0.8778
3603	0.8777
3612	0.8744
3621	0.8826
3630	0.8802
3639	0.8825
3648	0.8841
3657	0.8784
3666	0.8816
3675	0.8785
3684	0.8757
3693	0.8788
3702	0.8801
3711	0.878
3720	0.8811
3729	0.8843
3738	0.8869
3747	0.8877
3756	0.8868
3765	0.8841
3774	0.8792
3783	0.8653
