Infrared Spectrum: N-Ethylformamide
Formula: C 3 H 7 N O
CAS: 627-45-2
State: gas
Origin: Sadtler Research Labs Under US-EPA Contract
1/CM	ABSORBANCE
450	0.0413944
462	0.0490471
474	0.0401769
486	0.0377419
498	0.0523517
510	0.0535692
522	0.0518299
534	0.0386116
546	0.0363505
558	0.0363505
570	0.0408726
582	0.0420901
594	0.0452208
606	0.0358288
618	0.0123487
630	0.00365245
642	0.00191319
654	0.00226104
666	0.00173926
678	0.000173926
690	0.000173926
702	0.00139141
714	0.00695704
726	0.0113052
738	0.0128705
750	0.0125227
762	0.0137402
774	0.0160012
786	0.0206972
798	0.0274803
810	0.0354809
822	0.0360027
834	0.0283499
846	0.0168708
858	0.0113052
870	0.00765274
882	0.00539171
894	0.00452208
906	0.0086963
918	0.0142619
930	0.0189579
942	0.0198276
954	0.0205233
966	0.0217407
978	0.0222625
990	0.0262628
1002	0.030611
1014	0.0313067
1026	0.0295674
1038	0.0224365
1050	0.0160012
1062	0.0135662
1074	0.0189579
1086	0.0260889
1098	0.0271325
1110	0.0248714
1122	0.0253932
1134	0.0311328
1146	0.0466122
1158	0.0692225
1170	0.121052
1182	0.353418
1194	0.43638
1206	0.432032
1218	0.151837
1230	0.0803538
1242	0.100703
1254	0.105225
1266	0.0820931
1278	0.0629612
1290	0.0890501
1302	0.0982682
1314	0.0730489
1326	0.032872
1338	0.0227843
1350	0.0300892
1362	0.0457425
1374	0.0935722
1386	0.114617
1398	0.119313
1410	0.0699183
1422	0.0773971
1434	0.124705
1446	0.179839
1458	0.238105
1470	0.352026
1482	0.518299
1494	0.553606
1506	0.427336
1518	0.19845
1530	0.0735707
1542	0.0358288
1554	0.0191319
1566	0.0121748
1578	0.00921808
1590	0.00695704
1602	0.00608741
1614	0.00713097
1626	0.00973986
1638	0.011653
1650	0.0191319
1662	0.0271325
1674	0.0558302
1686	0.115139
1698	0.250975
1710	0.651701
1722	1.45715
1734	1.55525
1746	1.46202
1758	0.427336
1770	0.113748
1782	0.0393073
1794	0.021045
1806	0.0111313
1818	0.00626134
1830	0.00539171
1842	0.004696
1854	0.00278282
1866	0.00295674
1878	0.00208711
1890	0.00191319
1902	0.00139141
1914	0.00121748
1926	0.00156533
1938	0.00226104
1950	0.00243496
1962	0.00226104
1974	0.00191319
1986	0.00208711
1998	0.00295674
2010	0.00347852
2022	0.00347852
2034	0.00295674
2046	0.00295674
2058	0.00313067
2070	0.00365245
2082	0.00226104
2094	0.00121748
2106	0.000173926
2118	0.000173926
2130	0
2142	0.000173926
2154	0.000695704
2166	0.00121748
2178	0.00156533
2190	0.00226104
2202	0.00295674
2214	0.00243496
2226	0.00156533
2238	0.000521778
2250	0.000173926
2262	0.000347852
2274	0.00086963
2286	0.00104356
2298	0.00104356
2310	0.00156533
2322	0.00208711
2334	0.00330459
2346	0.00278282
2358	0.00226104
2370	0.00330459
2382	0.00295674
2394	0.00191319
2406	0.00121748
2418	0.00086963
2430	0.00156533
2442	0.00173926
2454	0.00191319
2466	0.00226104
2478	0.00243496
2490	0.00295674
2502	0.00330459
2514	0.00330459
2526	0.00295674
2538	0.00226104
2550	0.00208711
2562	0.00226104
2574	0.00295674
2586	0.00365245
2598	0.004696
2610	0.00539171
2622	0.00573956
2634	0.00626134
2646	0.00678311
2658	0.00782667
2670	0.009392
2682	0.0120009
2694	0.0149576
2706	0.0173926
2718	0.0246975
2730	0.0455686
2742	0.0862673
2754	0.0947897
2766	0.084702
2778	0.0460904
2790	0.0372202
2802	0.0528735
2814	0.104182
2826	0.223669
2838	0.328546
2850	0.342286
2862	0.247671
2874	0.164012
2886	0.145576
2898	0.137749
2910	0.13114
2922	0.135488
2934	0.165925
2946	0.183144
2958	0.202798
2970	0.226452
2982	0.254976
2994	0.226104
3006	0.139141
3018	0.0653962
3030	0.0297413
3042	0.0172187
3054	0.0125227
3066	0.0106095
3078	0.0100877
3090	0.009392
3102	0.0125227
3114	0.0128705
3126	0.0128705
3138	0.0080006
3150	0.00678311
3162	0.00643526
3174	0.00782667
3186	0.00817452
3198	0.00713097
3210	0.00591348
3222	0.00486993
3234	0.00347852
3246	0.00330459
3258	0.00313067
3270	0.00295674
3282	0.00260889
3294	0.00260889
3306	0.00278282
3318	0.00208711
3330	0.00191319
3342	0.00260889
3354	0.00226104
3366	0.00382637
3378	0.00330459
3390	0.00556563
3402	0.009392
3414	0.0161751
3426	0.0283499
3438	0.0448729
3450	0.068179
3462	0.084528
3474	0.0815713
3486	0.0603523
3498	0.0295674
3510	0.0114791
3522	0.00521778
3534	0.00278282
3546	0.00191319
3558	0.00086963
3570	0.00156533
3582	0.00104356
3594	0.00173926
3606	0.00086963
3618	0.00156533
3630	0.00173926
3642	0.000695704
3654	0.00139141
3666	0.00086963
3678	0.00243496
3690	0.00208711
3702	0.00086963
3714	0.00191319
3726	0.00139141
3738	0.00295674
3750	0.00121748
3762	0.00121748
3774	0.00139141
3786	0.00104356
3798	0.00173926
3810	0.00086963
3822	0.00121748
3834	0.00139141
3846	0.00121748
3858	0.00243496
3870	0.00226104
3882	0.00086963
3894	0.00156533
3906	0.00191319
3918	0.00104356
3930	0.00243496
3942	0.00260889
3954	0.00295674
3966	0.00208711
