Infrared Spectrum: 2,5-Dihydrofuran
Formula: C 4 H 6 O
CAS: 1708-29-8
State: gas
Instrument: HP-GC/MS/IRD
Origin: NIST Mass Spectrometry Data Center
1/CM	ABSORBANCE
550	0.0003128
562	5.06e-05
574	0.0003266
586	0.0003864
598	0.0005198
610	0.0011546
622	0.0031142
634	0.0059984
646	0.0059248
658	0.023874
670	0.0052762
682	0.007153
694	0.0043194
706	0.0022218
718	0.0022816
730	0.0026864
742	0.0031878
754	0.002369
766	0.001196
778	0.0012834
790	0.00115
802	0.0010626
814	0.0008602
826	0.0005428
838	0.0006118
850	0.0009108
862	0.0018262
874	0.0037352
886	0.0055568
898	0.0070932
910	0.007958
922	0.0045724
934	0.00253
946	0.0018952
958	0.0022954
970	0.0035006
982	0.0052486
994	0.006509
1006	0.0067298
1018	0.0085652
1030	0.0066148
1042	0.0082202
1054	0.0109894
1066	0.0191636
1078	0.0258934
1090	0.0254288
1102	0.022287
1114	0.0144026
1126	0.0050324
1138	0.0019182
1150	0.0013248
1162	0.0012282
1174	0.001035
1186	0.0008464
1198	0.0006808
1210	0.0006164
1222	0.0007314
1234	0.000828
1246	0.000736
1258	0.000391
1270	0.0002576
1282	0.0003082
1294	0.000529
1306	0.0009706
1318	0.0019136
1330	0.0027876
1342	0.0030038
1354	0.002668
1366	0.0021436
1378	0.001127
1390	0.0004876
1402	0.0002392
1414	0.0002622
1426	0.0002668
1438	0.0002622
1450	0.0003128
1462	0.0005336
1474	0.0006394
1486	0.0006118
1498	0.000552
1510	0.0003496
1522	0.0002668
1534	0.0003588
1546	0.00069
1558	0.0010442
1570	0.0012328
1582	0.001219
1594	0.000874
1606	0.00046
1618	0.0002622
1630	0.0001472
1642	0.0001288
1654	0.0001564
1666	0.0003266
1678	0.0004876
1690	0.000529
1702	0.0005934
1714	0.0004554
1726	0.0002714
1738	0.0003174
1750	0.00046
1762	0.0004692
1774	0.000506
1786	0.0003634
1798	0.000322
1810	0.0003404
1822	0.000299
1834	0.0002116
1846	0.000138
1858	6.44e-05
1870	5.06e-05
1882	9.66e-05
1894	0.0001748
1906	0.0003404
1918	0.000414
1930	0.0005796
1942	0.000621
1954	0.0006164
1966	0.0006854
1978	0.0007038
1990	0.0007636
2002	0.000506
2014	0.0002622
2026	0.000253
2038	0.0002622
2050	0.0002714
2062	0.0002484
2074	0.0001564
2086	8.74e-05
2098	5.52e-05
2110	3.68e-05
2122	0
2134	4.6e-05
2146	6.9e-05
2158	6.9e-05
2170	0.0001748
2182	0.0001748
2194	0.0001702
2206	0.0002116
2218	0.0001656
2230	0.000184
2242	0.0002024
2254	0.0001886
2266	0.0001564
2278	0.0001104
2290	4.6e-05
2302	2.76e-05
2314	0
2326	0
2338	0
2350	0
2362	8.74e-05
2374	3.22e-05
2386	5.98e-05
2398	5.52e-05
2410	4.6e-05
2422	2.76e-05
2434	8.74e-05
2446	6.9e-05
2458	0.0001104
2470	0.0001518
2482	0.0001978
2494	0.0001288
2506	0.0001564
2518	0.0001288
2530	0.0001564
2542	8.28e-05
2554	6.9e-05
2566	0.0001242
2578	0.0001426
2590	0.0001564
2602	0.0002438
2614	0.0003818
2626	0.0007176
2638	0.0009982
2650	0.001173
2662	0.001288
2674	0.0013478
2686	0.0013386
2698	0.0016468
2710	0.0020562
2722	0.0024288
2734	0.0027462
2746	0.0030314
2758	0.003036
2770	0.002737
2782	0.0025346
2794	0.0026404
2806	0.0033764
2818	0.0055016
2830	0.011868
2842	0.0282854
2854	0.0384192
2866	0.0396658
2878	0.0416024
2890	0.0433642
2902	0.0149868
2914	0.0124384
2926	0.0070978
2938	0.004439
2950	0.0041538
2962	0.0039606
2974	0.003772
2986	0.0030452
2998	0.0022264
3010	0.0018032
3022	0.0015732
3034	0.0013892
3046	0.0012972
3058	0.001748
3070	0.0027462
3082	0.0033074
3094	0.0033626
3106	0.0029624
3118	0.0016284
3130	0.0004416
3142	0.0001426
3154	0.0001242
3166	0.0001058
3178	0.0001012
3190	0.0001794
3202	0.0001472
3214	0.0001334
3226	9.2e-05
3238	8.74e-05
3250	9.66e-05
3262	0.0001794
3274	0.0001886
3286	0.0001748
3298	0.0001886
3310	0.0001104
3322	4.6e-06
3334	3.22e-05
3346	5.98e-05
3358	6.44e-05
3370	5.52e-05
3382	0.000115
3394	9.2e-06
3406	6.44e-05
3418	5.52e-05
3430	8.74e-05
3442	7.36e-05
3454	2.76e-05
3466	2.76e-05
3478	7.82e-05
3490	8.28e-05
3502	1.38e-05
3514	0.0001242
3526	5.52e-05
3538	0.0001426
3550	9.66e-05
3562	9.66e-05
3574	8.28e-05
3586	4.6e-05
3598	4.14e-05
3610	7.36e-05
3622	0.000115
3634	0.0001104
3646	9.2e-05
3658	7.36e-05
3670	0.000161
3682	9.66e-05
3694	0.0001104
3706	5.98e-05
3718	0.0002162
3730	0.0002346
3742	0.0002668
3754	0.000322
3766	0.0004094
3778	0.0004278
3790	0.0003404
3802	0.0002852
3814	0.0002898
3826	0.0002898
3838	0.0002806
