Infrared Spectrum: Ethene, tetrafluoro-
Formula: C 2 F 4
CAS: 116-14-3
State: gas
Origin: Sadtler Research Labs Under US-EPA Contract
1/CM	ABSORBANCE
450	0.0192167
462	0.00894383
474	0.00380741
486	0.00395109
498	0.00319679
510	0.00484906
522	0.00423844
534	0.00578296
546	0.00948262
558	0.00915934
570	0.0079381
582	0.00380741
594	0.00581888
606	0.00423844
618	0.00545969
630	0.00459763
642	0.00362782
654	0.0049209
666	0.00617807
678	0.00344822
690	0.00524417
702	0.00427436
714	0.00334047
726	0.00610623
738	0.00427436
750	0.00391517
762	0.00484906
774	0.00463355
786	0.00506458
798	0.00423844
810	0.00344822
822	0.00420252
834	0.00344822
846	0.00405885
858	0.00438212
870	0.0037715
882	0.00362782
894	0.00502866
906	0.00553153
918	0.00560336
930	0.00614215
942	0.00441804
954	0.00876424
966	0.00844096
978	0.00380741
990	0.00452579
1002	0.0037715
1014	0.00405885
1026	0.00484906
1038	0.00337639
1050	0.00334047
1062	0.00423844
1074	0.00330455
1086	0.00431028
1098	0.00445396
1110	0.00445396
1122	0.00797402
1134	0.00768667
1146	0.00783034
1158	0.0282323
1170	0.17277
1182	0.311813
1194	0.318925
1206	0.0412709
1218	0.0066091
1230	0.00686053
1242	0.00905159
1254	0.00481315
1266	0.00506458
1278	0.00768667
1290	0.0107757
1302	0.0333328
1314	0.139402
1326	0.32794
1338	0.3033
1350	0.185306
1362	0.0302079
1374	0.00549561
1386	0.00409477
1398	0.00380741
1410	0.00362782
1422	0.00348414
1434	0.0035919
1446	0.00387925
1458	0.00298128
1470	0.00348414
1482	0.00355598
1494	0.00352006
1506	0.00334047
1518	0.00420252
1530	0.00380741
1542	0.00474131
1554	0.00431028
1566	0.00348414
1578	0.00387925
1590	0.00287352
1602	0.00341231
1614	0.0035919
1626	0.00305311
1638	0.00348414
1650	0.00312495
1662	0.00344822
1674	0.00305311
1686	0.0035919
1698	0.00319679
1710	0.00452579
1722	0.0051005
1734	0.00466947
1746	0.00466947
1758	0.00334047
1770	0.0028376
1782	0.00305311
1794	0.00280168
1806	0.00294536
1818	0.00272984
1830	0.00287352
1842	0.00308903
1854	0.00298128
1866	0.00369966
1878	0.00391517
1890	0.00373558
1902	0.0028376
1914	0.00265801
1926	0.00265801
1938	0.00326863
1950	0.00391517
1962	0.00409477
1974	0.00352006
1986	0.00265801
1998	0.0028376
2010	0.00298128
2022	0.00255025
2034	0.00240657
2046	0.00269392
2058	0.00244249
2070	0.00290944
2082	0.00312495
2094	0.0037715
2106	0.00387925
2118	0.00355598
2130	0.00290944
2142	0.00308903
2154	0.00305311
2166	0.00265801
2178	0.00251433
2190	0.00240657
2202	0.00255025
2214	0.00251433
2226	0.0022629
2238	0.00308903
2250	0.00290944
2262	0.00308903
2274	0.00369966
2286	0.0035919
2298	0.0043462
2310	0.00571112
2322	0.00474131
2334	0.00337639
2346	0.00524417
2358	0.00276576
2370	0.00369966
2382	0.00330455
2394	0.00237065
2406	0.00308903
2418	0.00247841
2430	0.00258617
2442	0.00240657
2454	0.00247841
2466	0.00255025
2478	0.00272984
2490	0.00272984
2502	0.00337639
2514	0.00330455
2526	0.00341231
2538	0.00316087
2550	0.00247841
2562	0.00229882
2574	0.00222698
2586	0.0022629
2598	0.00193963
2610	0.00229882
2622	0.00201146
2634	0.0022629
2646	0.00269392
2658	0.0028376
2670	0.00308903
2682	0.00262209
2694	0.00237065
2706	0.00244249
2718	0.00244249
2730	0.00265801
2742	0.00244249
2754	0.00211922
2766	0.00251433
2778	0.00229882
2790	0.0022629
2802	0.00222698
2814	0.00247841
2826	0.00229882
2838	0.00280168
2850	0.00244249
2862	0.00244249
2874	0.00237065
2886	0.00222698
2898	0.00190371
2910	0.00258617
2922	0.00229882
2934	0.0022629
2946	0.00143676
2958	0.001329
2970	0.000646542
2982	0.00176003
2994	0.00244249
3006	0.00262209
3018	0.00294536
3030	0.00312495
3042	0.00352006
3054	0.00373558
3066	0.00326863
3078	0.00287352
3090	0.00237065
3102	0.00276576
3114	0.00262209
3126	0.00265801
3138	0.00262209
3150	0.00287352
3162	0.00326863
3174	0.00366374
3186	0.00380741
3198	0.0037715
3210	0.00355598
3222	0.00280168
3234	0.00280168
3246	0.00251433
3258	0.00258617
3270	0.00316087
3282	0.00272984
3294	0.00244249
3306	0.00287352
3318	0.00265801
3330	0.00298128
3342	0.00272984
3354	0.0028376
3366	0.00258617
3378	0.00269392
3390	0.00255025
3402	0.00290944
3414	0.00269392
3426	0.00369966
3438	0.00287352
3450	0.00316087
3462	0.00341231
3474	0.00319679
3486	0.00280168
3498	0.0028376
3510	0.00222698
3522	0.00305311
3534	0.00280168
3546	0.00183187
3558	0.00355598
3570	0.0035919
3582	0.00355598
3594	0.00380741
3606	0.00276576
3618	0.00337639
3630	0.00233474
3642	0.00373558
3654	0.00423844
3666	0.00391517
3678	0.00308903
3690	0.00323271
3702	0.00369966
3714	0.00438212
3726	0.00337639
3738	0.00373558
3750	0.00409477
3762	0.00441804
3774	0.00398701
3786	0.0043462
3798	0.00391517
3810	0.00355598
3822	0.00380741
3834	0.0043462
3846	0.00344822
3858	0.00448987
3870	0.00484906
3882	0.0043462
3894	0.00280168
3906	0.00477723
3918	0.00441804
3930	0.00308903
3942	0.0037715
3954	0.00391517
3966	0.00233474
