Infrared Spectrum: Ethylene, tetrafluoro-
Formula: C2 F4
CAS: 116-14-3
State: GAS (50 mmHg, N2 ADDED, TOTAL PRESSURE 600 mmHg)
Class: COBLENTZ
Instrument: DOW KBr FOREPRISM-GRATING
Instrument parameters: GRATING CHANGED AT 5.0, 7.5, 15.0 MICRON
Sampling: TRANSMISSION
Path length: 5 CM
Resolution: 2
Origin: DOW CHEMICAL COMPANY
1/CM	TRANSMITTANCE
454	0.8838
463	0.8928
472	0.9025
481	0.9113
490	0.9159
499	0.9187
508	0.9205
517	0.9229
526	0.9203
535	0.9097
544	0.8579
553	0.7938
562	0.7988
571	0.8559
580	0.9145
589	0.9207
598	0.9209
607	0.9196
616	0.9166
625	0.9148
634	0.919
643	0.9219
652	0.9225
661	0.9228
670	0.9287
679	0.9192
688	0.9131
697	0.9078
706	0.905
715	0.9021
724	0.9008
733	0.8991
742	0.8969
751	0.8947
760	0.8933
769	0.8923
778	0.8921
787	0.8927
796	0.8928
805	0.8928
814	0.8915
823	0.8899
832	0.8885
841	0.8877
850	0.8872
859	0.8878
868	0.8884
877	0.8882
886	0.8864
895	0.8594
904	0.8055
913	0.8366
922	0.8304
931	0.8771
940	0.8906
949	0.8837
958	0.8736
967	0.8844
976	0.8917
985	0.8918
994	0.8926
1003	0.8939
1012	0.8962
1021	0.8959
1030	0.8907
1039	0.8943
1048	0.8988
1057	0.8932
1066	0.8879
1075	0.8869
1084	0.8861
1093	0.8812
1102	0.869
1111	0.8452
1120	0.8041
1129	0.7401
1138	0.7342
1147	0.7483
1156	0.6845
1165	0.1751
1174	0.007
1183	0.0072
1192	0.0074
1201	0.1768
1210	0.819
1219	0.8725
1228	0.8934
1237	0.8897
1246	0.8849
1255	0.8816
1264	0.8807
1273	0.8731
1282	0.8251
1291	0.7732
1300	0.6656
1309	0.3211
1318	0.023
1327	0.0017
1336	0.0017
1345	0.0017
1354	0.0161
1363	0.3757
1372	0.8063
1381	0.8456
1390	0.8546
1399	0.8603
1408	0.8643
1417	0.8663
1426	0.865
1435	0.863
1444	0.8631
1453	0.8655
1462	0.8639
1471	0.867
1480	0.8607
1489	0.8629
1498	0.8606
1507	0.8678
1516	0.8509
1525	0.8466
1534	0.842
1543	0.8255
1552	0.8354
1561	0.8492
1570	0.8562
1579	0.8581
1588	0.8566
1597	0.8573
1606	0.8583
1615	0.8594
1624	0.8602
1633	0.8642
1642	0.8611
1651	0.8647
1660	0.861
1669	0.8628
1678	0.8633
1687	0.8652
1696	0.8663
1705	0.8582
1714	0.8343
1723	0.7891
1732	0.8018
1741	0.7931
1750	0.8529
1759	0.8615
1768	0.8651
1777	0.8563
1786	0.8554
1795	0.8566
1804	0.8593
1813	0.8622
1822	0.864
1831	0.8639
1840	0.8633
1849	0.8614
1858	0.8528
1867	0.8391
1876	0.8223
1885	0.8167
1894	0.83
1903	0.8545
1912	0.8587
1921	0.8584
1930	0.854
1939	0.8437
1948	0.8234
1957	0.8028
1966	0.8153
1975	0.8519
1984	0.8569
1993	0.8525
2002	0.845
2011	0.8438
2020	0.8479
2029	0.8552
2038	0.859
2047	0.8611
2056	0.8607
2065	0.8593
2074	0.8564
2083	0.8498
2092	0.8361
2101	0.8177
2110	0.8076
2119	0.8089
2128	0.8231
2137	0.8456
2146	0.8433
2155	0.8427
2164	0.8439
2173	0.8511
2182	0.86
2191	0.8614
2200	0.8612
2209	0.8608
2218	0.8603
2227	0.8587
2236	0.8566
2245	0.8532
2254	0.8485
2263	0.8419
2272	0.8304
2281	0.841
2290	0.8556
2299	0.8613
2308	0.8664
2317	0.87
2326	0.8724
2335	0.8732
2344	0.8728
2353	0.8718
2362	0.8697
2371	0.8674
2380	0.8646
2389	0.8617
2398	0.8588
2407	0.8561
2416	0.8486
2425	0.8428
2434	0.8475
2443	0.855
2452	0.8616
2461	0.8597
2470	0.857
2479	0.8526
2488	0.8442
2497	0.8343
2506	0.8246
2515	0.8164
2524	0.8154
2533	0.8182
2542	0.8401
2551	0.8541
2560	0.8573
2569	0.8588
2578	0.86
2587	0.8612
2596	0.8622
2605	0.8615
2614	0.8601
2623	0.8573
2632	0.8504
2641	0.8419
2650	0.8317
2659	0.8206
2668	0.8139
2677	0.8204
2686	0.8389
2695	0.8543
2704	0.8567
2713	0.8581
2722	0.8599
2731	0.8614
2740	0.8625
2749	0.8636
2758	0.8646
2767	0.8646
2776	0.8647
2785	0.8647
2794	0.8647
2803	0.8645
2812	0.8644
2821	0.8643
2830	0.8642
2839	0.8641
2848	0.864
2857	0.8638
2866	0.8637
2875	0.8636
2884	0.8634
2893	0.8633
2902	0.8631
2911	0.863
2920	0.8628
2929	0.8626
2938	0.8619
2947	0.8612
2956	0.8605
2965	0.8598
2974	0.8591
2983	0.8583
2992	0.8575
3001	0.8566
3010	0.8558
3019	0.8536
3028	0.8515
3037	0.8417
3046	0.8179
3055	0.8189
3064	0.8404
3073	0.8656
3082	0.868
3091	0.8694
3100	0.8701
3109	0.8701
3118	0.8699
3127	0.8696
3136	0.8687
3145	0.8671
3154	0.8654
3163	0.8631
3172	0.8589
3181	0.8522
3190	0.8374
3199	0.8303
3208	0.8356
3217	0.8517
3226	0.8679
3235	0.8694
3244	0.8701
3253	0.8703
3262	0.8703
3271	0.8701
3280	0.8701
3289	0.8701
3298	0.87
3307	0.87
3316	0.87
3325	0.87
3334	0.8703
3343	0.8706
3352	0.8711
3361	0.8715
3370	0.872
3379	0.8724
3388	0.8729
3397	0.8731
3406	0.8733
3415	0.8734
3424	0.8736
3433	0.8737
3442	0.8739
3451	0.874
3460	0.8742
3469	0.8743
3478	0.8744
3487	0.8745
3496	0.8746
3505	0.8746
3514	0.8745
3523	0.8745
3532	0.8745
3541	0.8745
3550	0.8747
3559	0.875
3568	0.8753
3577	0.8756
3586	0.876
3595	0.8763
3604	0.8764
3613	0.8765
3622	0.8767
3631	0.8768
3640	0.877
3649	0.8772
3658	0.8796
3667	0.8794
3676	0.8731
3685	0.8734
3694	0.8757
3703	0.8772
3712	0.8799
3721	0.8827
3730	0.8832
3739	0.8812
3748	0.8778
3757	0.8754
3766	0.8752
3775	0.8773
3784	0.8798
3793	0.8747
