Infrared Spectrum: Imidazole, 1-methyl-
Formula: C4 H6 N2
CAS: 616-47-7
State: LIQUID (NEAT)
Class: COBLENTZ III
Instrument: DOW KBr FOREPRISM-GRATING
Instrument parameters: BLAZED AT 3.5, 12.0, 20.0 MICRON AND CHANGED AT 5.0, 7.5, 14.9 MICRON
Sampling: TRANSMISSION
Path length: CAPILLARY
Resolution: 2
Origin: DOW CHEMICAL COMPANY
1/CM	TRANSMITTANCE
460	0.7687
469	0.772
478	0.7754
487	0.7805
496	0.7843
505	0.7845
514	0.7828
523	0.7805
532	0.7798
541	0.782
550	0.7855
559	0.7897
568	0.792
577	0.7952
586	0.7972
595	0.7977
604	0.796
613	0.7605
622	0.438
631	0.7973
640	0.8044
649	0.8007
658	0.7488
667	0.207
676	0.6689
685	0.8103
694	0.8244
703	0.8216
712	0.8089
721	0.7577
730	0.5972
739	0.4579
748	0.4761
757	0.5585
766	0.641
775	0.7251
784	0.7718
793	0.7838
802	0.7118
811	0.5704
820	0.4876
829	0.553
838	0.6548
847	0.7103
856	0.7512
865	0.791
874	0.818
883	0.8323
892	0.833
901	0.6877
910	0.5289
919	0.83
928	0.8651
937	0.8729
946	0.8776
955	0.8791
964	0.8797
973	0.8788
982	0.8779
991	0.8766
1000	0.8721
1009	0.8614
1018	0.8355
1027	0.6328
1036	0.8314
1045	0.8333
1054	0.8052
1063	0.7184
1072	0.4938
1081	0.3971
1090	0.6832
1099	0.7086
1108	0.4047
1117	0.7341
1126	0.8337
1135	0.8447
1144	0.8528
1153	0.8607
1162	0.8645
1171	0.8645
1180	0.8584
1189	0.8675
1198	0.8613
1207	0.8475
1216	0.804
1225	0.5402
1234	0.3085
1243	0.6577
1252	0.8081
1261	0.8189
1270	0.8038
1279	0.6731
1288	0.4355
1297	0.8148
1306	0.8392
1315	0.8415
1324	0.8289
1333	0.8376
1342	0.8418
1351	0.7875
1360	0.7487
1369	0.8075
1378	0.8146
1387	0.812
1396	0.8255
1405	0.8009
1414	0.713
1423	0.54
1432	0.7445
1441	0.7236
1450	0.6879
1459	0.6731
1468	0.6506
1477	0.6447
1486	0.6611
1495	0.643
1504	0.4326
1513	0.251
1522	0.1869
1531	0.5849
1540	0.759
1549	0.7731
1558	0.7746
1567	0.7686
1576	0.7638
1585	0.7605
1594	0.764
1603	0.7701
1612	0.7757
1621	0.7783
1630	0.7801
1639	0.7812
1648	0.7818
1657	0.779
1666	0.7701
1675	0.7597
1684	0.7692
1693	0.7905
1702	0.81
1711	0.8258
1720	0.8386
1729	0.85
1738	0.856
1747	0.8611
1756	0.8662
1765	0.8709
1774	0.8739
1783	0.8767
1792	0.8771
1801	0.8787
1810	0.8811
1819	0.8832
1828	0.8845
1837	0.8861
1846	0.8876
1855	0.8879
1864	0.8879
1873	0.8871
1882	0.8863
1891	0.8865
1900	0.887
1909	0.8858
1918	0.8853
1927	0.8843
1936	0.8829
1945	0.8797
1954	0.8768
1963	0.8836
1972	0.8846
1981	0.8856
1990	0.8878
1999	0.9112
2008	0.91
2017	0.9087
2026	0.9088
2035	0.9095
2044	0.9104
2053	0.9113
2062	0.9116
2071	0.9118
2080	0.9121
2089	0.9123
2098	0.912
2107	0.911
2116	0.9095
2125	0.9074
2134	0.9051
2143	0.9022
2152	0.8993
2161	0.8985
2170	0.8991
2179	0.8998
2188	0.9011
2197	0.9024
2206	0.9038
2215	0.9051
2224	0.9065
2233	0.9081
2242	0.9098
2251	0.9107
2260	0.9095
2269	0.9117
2278	0.9137
2287	0.913
2296	0.908
2305	0.9035
2314	0.9005
2323	0.9169
2332	0.9159
2341	0.914
2350	0.912
2359	0.9096
2368	0.9076
2377	0.9061
2386	0.9043
2395	0.9025
2404	0.901
2413	0.8995
2422	0.898
2431	0.8959
2440	0.892
2449	0.8867
2458	0.8834
2467	0.8835
2476	0.8881
2485	0.8918
2494	0.8937
2503	0.895
2512	0.8954
2521	0.8939
2530	0.8919
2539	0.8899
2548	0.8872
2557	0.8842
2566	0.8819
2575	0.8795
2584	0.8779
2593	0.8813
2602	0.8863
2611	0.8911
2620	0.8931
2629	0.895
2638	0.8952
2647	0.8935
2656	0.8915
2665	0.888
2674	0.8827
2683	0.8757
2692	0.867
2701	0.8565
2710	0.8515
2719	0.8591
2728	0.8672
2737	0.8711
2746	0.8728
2755	0.8731
2764	0.8731
2773	0.8731
2782	0.873
2791	0.8681
2800	0.8561
2809	0.842
2818	0.8347
2827	0.8435
2836	0.8518
2845	0.8461
2854	0.8388
2863	0.8312
2872	0.8223
2881	0.8082
2890	0.7848
2899	0.7608
2908	0.7368
2917	0.7133
2926	0.7182
2935	0.7405
2944	0.73
2953	0.6723
2962	0.6826
2971	0.7572
2980	0.7584
2989	0.7542
2998	0.7559
3007	0.7581
3016	0.7606
3025	0.7663
3034	0.7771
3043	0.7888
3052	0.7866
3061	0.7777
3070	0.7632
3079	0.7339
3088	0.6908
3097	0.6359
3106	0.5073
3115	0.5564
3124	0.6399
3133	0.6641
3142	0.6815
3151	0.7323
3160	0.7647
3169	0.7709
3178	0.7725
3187	0.774
3196	0.7749
3205	0.774
3214	0.7721
3223	0.7702
3232	0.7682
3241	0.7661
3250	0.7643
3259	0.7626
3268	0.7604
3277	0.7579
3286	0.7555
3295	0.7526
3304	0.7495
3313	0.7463
3322	0.7431
3331	0.7398
3340	0.7367
3349	0.7334
3358	0.7304
3367	0.7281
3376	0.726
3385	0.7251
3394	0.7248
3403	0.7251
3412	0.7273
3421	0.7301
3430	0.7335
3439	0.737
3448	0.7411
3457	0.7461
3466	0.7522
3475	0.7586
3484	0.7653
3493	0.7719
3502	0.7774
3511	0.7828
3520	0.7914
3529	0.7998
3538	0.8079
3547	0.8149
3556	0.8216
3565	0.8278
3574	0.8337
3583	0.8394
3592	0.8447
3601	0.8498
3610	0.8535
3619	0.8572
3628	0.861
3637	0.8648
3646	0.8683
3655	0.8712
3664	0.8741
3673	0.8755
3682	0.8763
3691	0.8769
3700	0.8775
3709	0.878
3718	0.8789
3727	0.8798
3736	0.8813
3745	0.8803
3754	0.8776
3763	0.8754
3772	0.8745
3781	0.8746
3790	0.8751
3799	0.8757
