Infrared Spectrum: 1,2-DICHLORO-2-FLUORO PROPANE
Formula: C3 H5 Cl2 F
CAS: 420-97-3
State: SOLUTION (10% CCl4 FOR 5000-1330, 10% CS2 FOR 1330-625 CM^-^1)
Class: COBLENTZ
Instrument: Not specified, most likely a prism, grating, or hybrid spectrometer.
Sampling: TRANSMISSION
Path length: 0.0110 CM, 0.0111 CM
Resolution: 4
Origin: DOW CHEMICAL COMPANY
MICROMETERS	TRANSMITTANCE
2.034	0.902
2.07516	0.904
2.11631	0.907
2.15747	0.907
2.19863	0.897
2.23978	0.89
2.28094	0.899
2.32209	0.901
2.36325	0.906
2.40441	0.907
2.44556	0.907
2.48672	0.912
2.52788	0.912
2.56903	0.914
2.61019	0.914
2.65134	0.914
2.6925	0.923
2.73366	0.928
2.77481	0.928
2.81597	0.923
2.85713	0.923
2.89828	0.909
2.93944	0.901
2.9806	0.904
3.02175	0.909
3.06291	0.911
3.10406	0.914
3.14522	0.921
3.18638	0.928
3.22753	0.926
3.26869	0.919
3.30985	0.832
3.351	0.82
3.39216	0.854
3.43332	0.912
3.47447	0.909
3.51563	0.916
3.55678	0.935
3.59794	0.938
3.6391	0.938
3.68025	0.936
3.72141	0.936
3.76257	0.938
3.80372	0.94
3.84488	0.945
3.88603	0.948
3.92719	0.95
3.96835	0.948
4.0095	0.947
4.05066	0.947
4.09182	0.948
4.13297	0.95
4.17413	0.95
4.21529	0.95
4.25644	0.95
4.2976	0.94
4.33875	0.928
4.37991	0.928
4.42107	0.941
4.46222	0.947
4.50338	0.948
4.54454	0.95
4.58569	0.952
4.62685	0.952
4.668	0.95
4.70916	0.95
4.75032	0.955
4.79147	0.959
4.83263	0.959
4.87379	0.95
4.91494	0.95
4.9561	0.95
4.99726	0.95
5.03841	0.95
5.07957	0.95
5.12072	0.95
5.16188	0.95
5.20304	0.95
5.24419	0.95
5.28535	0.95
5.32651	0.948
5.36766	0.948
5.40882	0.947
5.44997	0.941
5.49113	0.931
5.53229	0.921
5.57344	0.921
5.6146	0.931
5.65576	0.935
5.69691	0.938
5.73807	0.938
5.77923	0.938
5.82038	0.938
5.86154	0.938
5.90269	0.938
5.94385	0.935
5.98501	0.928
6.02616	0.904
6.06732	0.82
6.10848	0.79
6.14963	0.813
6.19079	0.851
6.23195	0.796
6.2731	0.713
6.31426	0.674
6.35541	0.646
6.39657	0.602
6.43773	0.535
6.47888	0.539
6.52004	0.624
6.5612	0.67
6.60235	0.72
6.64351	0.784
6.68466	0.837
6.72582	0.865
6.76698	0.873
6.80813	0.866
6.84929	0.79
6.89045	0.663
6.9316	0.699
6.97276	0.631
7.01392	0.605
7.05507	0.808
7.09623	0.848
7.13738	0.825
7.17854	0.665
7.2197	0.343
7.26085	0.67
7.30201	0.846
7.34317	0.868
7.38432	0.872
7.42548	0.875
7.46663	0.878
7.50779	0.88
7.54895	0.88
7.5901	0.878
7.63126	0.856
7.67242	0.827
7.71357	0.784
7.75473	0.651
7.79589	0.651
7.83704	0.767
7.8782	0.691
7.91935	0.511
7.96051	0.51
8.00167	0.645
8.04282	0.674
8.08398	0.686
8.12514	0.639
8.16629	0.486
8.20745	0.373
8.2486	0.302
8.28976	0.341
8.33092	0.448
8.37207	0.587
8.41323	0.709
8.45439	0.769
8.49554	0.8
8.5367	0.82
8.57786	0.827
8.61901	0.827
8.66017	0.827
8.70132	0.819
8.74248	0.798
8.78364	0.745
8.82479	0.621
8.86595	0.551
8.90711	0.551
8.94826	0.46
8.98942	0.341
9.03058	0.377
9.07173	0.389
9.11289	0.191
9.15404	0.109
9.1952	0.167
9.23636	0.244
9.27751	0.18
9.31867	0.11
9.35983	0.255
9.40098	0.527
9.44214	0.684
9.48329	0.754
9.52445	0.798
9.56561	0.837
9.60676	0.849
9.64792	0.86
9.68908	0.868
9.73023	0.872
9.77139	0.877
9.81255	0.88
9.8537	0.887
9.89486	0.892
9.93601	0.897
9.97717	0.901
10.0183	0.899
10.0595	0.894
10.1006	0.885
10.1418	0.872
10.183	0.86
10.2241	0.834
10.2653	0.793
10.3064	0.684
10.3476	0.508
10.3887	0.399
10.4299	0.506
10.471	0.629
10.5122	0.66
10.5534	0.61
10.5945	0.605
10.6357	0.696
10.6768	0.752
10.718	0.776
10.7591	0.767
10.8003	0.742
10.8415	0.723
10.8826	0.697
10.9238	0.668
10.9649	0.704
11.0061	0.762
11.0472	0.773
11.0884	0.718
11.1295	0.604
11.1707	0.476
11.2119	0.431
11.253	0.479
11.2942	0.629
11.3353	0.708
11.3765	0.73
11.4176	0.737
11.4588	0.73
11.5	0.72
11.5411	0.708
11.5823	0.687
11.6234	0.653
11.6646	0.616
11.7057	0.558
11.7469	0.462
11.788	0.336
11.8292	0.284
11.8704	0.29
11.9115	0.213
11.9527	0.191
11.9938	0.286
12.035	0.493
12.0761	0.638
12.1173	0.723
12.1585	0.769
12.1996	0.793
12.2408	0.812
12.2819	0.819
12.3231	0.822
12.3642	0.822
12.4054	0.822
12.4466	0.819
12.4877	0.807
12.5289	0.791
12.57	0.761
12.6112	0.718
12.6523	0.655
12.6935	0.61
12.7346	0.612
12.7758	0.648
12.817	0.691
12.8581	0.718
12.8993	0.718
12.9404	0.697
12.9816	0.684
13.0227	0.686
13.0639	0.691
13.1051	0.663
13.1462	0.621
13.1874	0.573
13.2285	0.522
13.2697	0.424
13.3108	0.264
13.352	0.146
13.3931	0.102
13.4343	0.145
13.4755	0.284
13.5166	0.435
13.5578	0.561
13.5989	0.641
13.6401	0.686
13.6812	0.703
13.7224	0.709
13.7636	0.716
13.8047	0.721
13.8459	0.721
13.887	0.72
13.9282	0.713
13.9693	0.706
14.0105	0.697
14.0516	0.686
14.0928	0.674
14.134	0.663
14.1751	0.646
14.2163	0.621
14.2574	0.588
14.2986	0.551
14.3397	0.506
14.3809	0.467
14.4221	0.426
14.4632	0.38
14.5044	0.315
14.5455	0.244
14.5867	0.163
14.6278	0.102
14.669	0.071
14.7101	0.08
14.7513	0.119
14.7925	0.187
14.8336	0.274
14.8748	0.327
14.9159	0.37
14.9571	0.406
14.9982	0.435
15.0394	0.457
15.0806	0.469
15.1217	0.474
15.1629	0.476
15.204	0.477
15.2452	0.477
15.2863	0.477
15.3275	0.476
15.3686	0.476
15.4098	0.476
15.451	0.469
15.4921	0.46
15.5333	0.452
15.5744	0.445
15.6156	0.436
15.6567	0.431
15.6979	0.43
15.7391	0.43
15.7802	0.43
15.8214	0.428
15.8625	0.43
15.9037	0.43
