Infrared Spectrum: PROPANE, 1,2-DICHLORO-2-FLUORO-
Formula: C3 H5 Cl2 F
CAS: 420-97-3
State: SOLUTION (10% IN CCl4 FOR 3800-1333 AND 10% IN CS2 FOR 1333-450 CM^-^1)
Class: COBLENTZ III
Instrument: DOW KBr FOREPRISM-GRATING
Instrument parameters: BLAZED AT 3.5, 12.0, 20.0 MICRON, CHANGED AT 5.0, 7.5, 14.9 MICRON
Sampling: TRANSMISSION
Path length: 0.011, 0.011 CM
Resolution: 4
Origin: DOW CHEMICAL COMPANY
1/CM	TRANSMITTANCE
451.304	0.851
460	0.826
468.695	0.717
477.391	0.632
486.087	0.893
494.782	0.944
503.478	0.959
512.174	0.955
520.869	0.959
529.565	0.869
538.261	0.968
546.956	0.989
555.652	1.001
564.347	1.002
573.043	1.001
581.739	0.994
590.434	0.974
599.13	0.927
607.826	0.645
616.521	0.697
625.217	0.933
633.913	0.912
642.608	0.867
651.304	0.877
660	0.863
668.695	0.745
677.391	0.095
686.087	0.346
694.782	0.711
703.478	0.892
712.174	0.922
720.869	0.916
729.565	0.881
738.26	0.645
746.956	0.156
755.652	0.726
764.347	0.831
773.043	0.831
781.739	0.738
790.434	0.78
799.13	0.892
807.826	0.916
816.521	0.896
825.217	0.786
833.913	0.178
842.608	0.307
851.304	0.569
860	0.741
868.695	0.797
877.391	0.82
886.087	0.649
894.782	0.709
903.478	0.881
912.173	0.722
920.869	0.795
929.565	0.856
938.26	0.773
946.956	0.681
955.652	0.596
964.347	0.536
973.043	0.889
981.739	0.95
990.434	0.97
999.13	0.979
1007.83	0.978
1016.52	0.971
1025.22	0.963
1033.91	0.952
1042.61	0.92
1051.3	0.848
1060	0.709
1068.7	0.262
1077.39	0.159
1086.09	0.211
1094.78	0.108
1103.48	0.468
1112.17	0.346
1120.87	0.662
1129.56	0.702
1138.26	0.87
1146.96	0.901
1155.65	0.914
1164.35	0.91
1173.04	0.891
1181.74	0.822
1190.43	0.662
1199.13	0.45
1207.83	0.302
1216.52	0.426
1225.22	0.662
1233.91	0.783
1242.61	0.719
1251.3	0.667
1260	0.524
1268.7	0.82
1277.39	0.832
1286.09	0.595
1294.78	0.87
1303.48	0.889
1312.17	0.935
1320.87	0.949
1329.56	0.95
1338.26	0.948
1346.96	0.949
1355.65	0.948
1364.35	0.911
1373.04	0.832
1381.74	0.217
1390.43	0.645
1399.13	0.85
1407.83	0.863
1416.52	0.822
1425.22	0.452
1433.91	0.719
1442.61	0.675
1451.3	0.636
1460	0.85
1468.7	0.885
1477.39	0.884
1486.09	0.88
1494.78	0.847
1503.48	0.797
1512.17	0.739
1520.87	0.693
1529.56	0.647
1538.26	0.547
1546.96	0.476
1555.65	0.502
1564.35	0.587
1573.04	0.64
1581.74	0.66
1590.43	0.709
1599.13	0.797
1607.83	0.87
1616.52	0.896
1625.22	0.882
1633.91	0.832
1642.61	0.889
1651.3	0.891
1660	0.937
1668.7	0.941
1677.39	0.935
1686.09	0.938
1694.78	0.935
1703.48	0.934
1712.17	0.918
1720.87	0.891
1729.56	0.869
1738.26	0.87
1746.96	0.901
1755.65	0.92
1764.35	0.925
1773.04	0.93
1781.74	0.927
1790.43	0.912
1799.13	0.911
1807.83	0.933
1816.52	0.941
1825.22	0.942
1833.91	0.94
1842.61	0.944
1851.3	0.942
1860	0.941
1868.7	0.946
1877.39	0.948
1886.09	0.946
1894.78	0.944
1903.48	0.949
1912.17	0.948
1920.87	0.944
1929.56	0.944
1938.26	0.949
1946.96	0.948
1955.65	0.946
1964.35	0.946
1973.04	0.953
1981.74	0.949
1990.43	0.95
1999.13	0.956
2007.83	0.9585
2016.52	0.966
2025.22	0.963
2033.91	0.961
2042.61	0.9605
2051.3	0.9565
2060	0.956
2068.7	0.9579
2077.39	0.964
2086.09	0.97
2094.78	0.967
2103.48	0.965
2112.17	0.9689
2120.87	0.97
2129.56	0.9676
2138.26	0.965
2146.96	0.965
2155.65	0.965
2164.35	0.965
2173.04	0.967
2181.74	0.967
2190.43	0.968
2199.13	0.9688
2207.83	0.967
2216.52	0.9629
2225.22	0.9577
2233.91	0.9617
2242.61	0.965
2251.3	0.9623
2260	0.9567
2268.7	0.9487
2277.39	0.942
2286.09	0.9467
2294.78	0.9457
2303.48	0.9393
2312.17	0.9346
2320.87	0.9453
2329.56	0.946
2338.26	0.956
2346.96	0.9643
2355.65	0.968
2364.35	0.968
2373.04	0.9637
2381.74	0.963
2390.43	0.9686
2399.13	0.971
2407.83	0.9713
2416.52	0.974
2425.22	0.976
2433.91	0.976
2442.61	0.974
2451.3	0.971
2460	0.97
2468.69	0.967
2477.39	0.9702
2486.09	0.97
2494.78	0.965
2503.48	0.967
2512.17	0.971
2520.87	0.9708
2529.56	0.9672
2538.26	0.967
2546.96	0.965
2555.65	0.963
2564.35	0.9654
2573.04	0.968
2581.74	0.9648
2590.43	0.964
2599.13	0.965
2607.83	0.965
2616.52	0.9437
2625.22	0.957
2633.91	0.953
2642.61	0.9551
2651.3	0.9631
2660	0.965
2668.69	0.9639
2677.39	0.957
2686.09	0.9591
2694.78	0.961
2703.48	0.9569
2712.17	0.957
2720.87	0.963
2729.56	0.9599
2738.26	0.9569
2746.96	0.9612
2755.65	0.963
2764.35	0.963
2773.04	0.963
2781.74	0.963
2790.43	0.9629
2799.13	0.9589
2807.83	0.953
2816.52	0.9479
2825.22	0.941
2833.91	0.929
2842.61	0.931
2851.3	0.934
2860	0.934
2868.69	0.931
2877.39	0.929
2886.09	0.934
2894.78	0.933
2903.48	0.929
2912.17	0.918
2920.87	0.9051
2929.56	0.893
2938.26	0.8512
2946.96	0.8439
2955.65	0.8132
2964.35	0.8249
2973.04	0.7565
2981.74	0.8725
2990.43	0.8549
2999.13	0.7865
3007.83	0.7569
3016.52	0.8625
3025.22	0.9119
3033.91	0.9178
3042.61	0.9257
3051.3	0.9328
3060	0.937
3068.69	0.94
3077.39	0.94
3086.09	0.9419
3094.78	0.946
3103.48	0.9462
3112.17	0.9477
3120.87	0.9499
3129.56	0.95
3138.26	0.953
3146.96	0.956
3155.65	0.956
3164.35	0.9568
3173.04	0.957
3181.74	0.957
3190.43	0.957
3199.13	0.96
3207.83	0.9614
3216.52	0.957
3225.22	0.957
3233.91	0.96
3242.61	0.961
3251.3	0.961
3260	0.963
3268.69	0.9666
3277.39	0.968
3286.09	0.968
3294.78	0.9672
3303.48	0.9655
3312.17	0.965
3320.87	0.9665
3329.56	0.97
3338.26	0.971
3346.96	0.9673
3355.65	0.9707
3364.35	0.972
3373.04	0.971
3381.74	0.9703
3390.43	0.97
3399.13	0.9732
3407.83	0.971
3416.52	0.971
3425.22	0.9686
3433.91	0.968
3442.61	0.9717
3451.3	0.9689
3460	0.9647
3468.69	0.967
3477.39	0.967
3486.09	0.968
3494.78	0.97
3503.48	0.9703
3512.17	0.9703
3520.87	0.971
3529.56	0.972
3538.26	0.9733
3546.96	0.976
3555.65	0.978
3564.35	0.9744
3573.04	0.956
3581.74	0.9732
3590.43	0.9732
3599.13	0.966
3607.83	0.974
3616.52	0.978
3625.22	0.9732
3633.91	0.9786
3642.61	0.978
3651.3	0.9763
3660	0.983
3668.69	0.98
3677.39	0.9763
3686.09	0.9716
3694.78	0.979
3703.48	0.9734
3712.17	0.9791
3720.87	0.9841
3729.56	0.9905
3738.26	0.9844
3746.96	0.9811
3755.65	0.9755
3764.35	0.9795
3773.04	0.978
3781.74	0.982
3790.43	0.982
