Infrared Spectrum: Butylbromide, tert-
Formula: C4 H9 Br
CAS: 507-19-7
State: GAS
Class: COBLENTZ III
Instrument: PERKIN-ELMER 21 (GRATING)
Instrument parameters: FILTER CHANGE ABOUT 1085 CM^-^1
Sampling: TRANSMISSION
Path length: 10 CM CELL
Resolution: 2
Origin: SOUTHERN RESEARCH INSTITUTE
1/CM	TRANSMITTANCE
605.05	0.5688
614.104	0.5721
623.159	0.5672
632.213	0.5538
641.267	0.5277
650.321	0.5347
659.376	0.5464
668.43	0.5594
677.484	0.5722
686.538	0.5855
695.593	0.6047
704.647	0.6198
713.701	0.6303
722.755	0.6498
731.81	0.6564
740.864	0.6597
749.918	0.6636
758.973	0.6603
768.027	0.627
777.081	0.622
786.135	0.6197
795.19	0.4176
804.244	0.2281
813.298	0.2581
822.352	0.4467
831.407	0.6389
840.461	0.7295
849.515	0.783
858.569	0.8034
867.624	0.8205
876.678	0.8348
885.732	0.8167
894.786	0.833
903.841	0.8472
912.895	0.8486
921.949	0.8392
931.004	0.8677
940.058	0.8949
949.112	0.8985
958.166	0.8978
967.221	0.8941
976.275	0.9009
985.329	0.9123
994.383	0.9115
1003.44	0.908
1012.49	0.8969
1021.55	0.8762
1030.6	0.8528
1039.65	0.8538
1048.71	0.8586
1057.76	0.8759
1066.82	0.8732
1075.87	0.8757
1084.93	0.853
1093.98	0.8849
1103.03	0.8658
1112.09	0.8386
1121.14	0.7653
1130.2	0.5063
1139.25	0.0131
1148.31	0.0058
1157.36	0.0047
1166.41	0.0912
1175.47	0.5268
1184.52	0.5566
1193.58	0.5019
1202.63	0.4646
1211.69	0.5044
1220.74	0.5294
1229.79	0.2688
1238.85	0.1288
1247.9	0.4551
1256.96	0.8415
1266.01	0.8895
1275.07	0.8983
1284.12	0.9011
1293.17	0.9002
1302.23	0.8947
1311.28	0.887
1320.34	0.8871
1329.39	0.8754
1338.45	0.885
1347.5	0.8774
1356.55	0.7473
1365.61	0.2698
1374.66	0.0247
1383.72	0.0233
1392.77	0.1166
1401.83	0.5481
1410.88	0.6091
1419.93	0.6595
1428.99	0.7256
1438.04	0.7436
1447.1	0.5223
1456.15	0.1443
1465.21	0.0983
1474.26	0.1337
1483.31	0.2471
1492.37	0.3721
1501.42	0.6778
1510.48	0.8835
1519.53	0.9453
1528.59	0.9503
1537.64	0.9463
1546.69	0.9435
1555.75	0.9491
1564.8	0.9474
1573.86	0.9491
1582.91	0.94
1591.96	0.9363
1601.02	0.9356
1610.07	0.9363
1619.13	0.9347
1628.18	0.9319
1637.24	0.9363
1646.29	0.9338
1655.34	0.9154
1664.4	0.9127
1673.45	0.9097
1682.51	0.9094
1691.56	0.9129
1700.62	0.9112
1709.67	0.8946
1718.72	0.8781
1727.78	0.872
1736.83	0.8721
1745.89	0.8801
1754.94	0.883
1764	0.8975
1773.05	0.9111
1782.1	0.9106
1791.16	0.9158
1800.21	0.922
1809.27	0.9263
1818.32	0.9316
1827.38	0.9271
1836.43	0.9142
1845.48	0.9027
1854.54	0.8998
1863.59	0.9137
1872.65	0.9256
1881.7	0.9344
1890.76	0.9365
1899.81	0.9339
1908.86	0.9304
1917.92	0.9258
1926.97	0.9236
1936.03	0.9274
1945.08	0.9295
1954.14	0.9269
1963.19	0.9264
1972.24	0.9281
1981.3	0.93
1990.35	0.935
1999.41	0.9361
2008.46	0.9345
2017.52	0.9356
2026.57	0.9365
2035.62	0.9358
2044.68	0.9347
2053.73	0.9332
2062.79	0.932
2071.84	0.9314
2080.9	0.9304
2089.95	0.93
2099	0.9369
2108.06	0.9381
2117.11	0.9367
2126.17	0.9364
2135.22	0.9347
2144.28	0.9288
2153.33	0.9175
2162.38	0.903
2171.44	0.884
2180.49	0.8685
2189.55	0.8931
2198.6	0.9202
2207.65	0.9279
2216.71	0.932
2225.76	0.9338
2234.82	0.935
2243.87	0.9344
2252.93	0.9394
2261.98	0.9397
2271.03	0.9329
2280.09	0.9186
2289.14	0.903
2298.2	0.8917
2307.25	0.9135
2316.31	0.9481
2325.36	0.9563
2334.41	0.9537
2343.47	0.9408
2352.52	0.9214
2361.58	0.9123
2370.63	0.9045
2379.69	0.8937
2388.74	0.8815
2397.79	0.8696
2406.85	0.8723
2415.9	0.8878
2424.96	0.8946
2434.01	0.9137
2443.07	0.916
2452.12	0.9159
2461.17	0.9162
2470.23	0.9218
2479.28	0.9258
2488.34	0.9173
2497.39	0.9186
2506.45	0.9219
2515.5	0.9213
2524.55	0.9207
2533.61	0.9202
2542.66	0.9196
2551.72	0.9169
2560.77	0.9143
2569.83	0.9102
2578.88	0.903
2587.93	0.8903
2596.99	0.8728
2606.04	0.8682
2615.1	0.8635
2624.15	0.8596
2633.21	0.8719
2642.26	0.8866
2651.31	0.8825
2660.37	0.8807
2669.42	0.8673
2678.48	0.8551
2687.53	0.8443
2696.59	0.8488
2705.64	0.8463
2714.69	0.8265
2723.75	0.7805
2732.8	0.7412
2741.86	0.7744
2750.91	0.8306
2759.97	0.8437
2769.02	0.8295
2778.07	0.7873
2787.13	0.7633
2796.18	0.7523
2805.24	0.7008
2814.29	0.6604
2823.34	0.6263
2832.4	0.5481
2841.45	0.3631
2850.51	0.1821
2859.56	0.1412
2868.62	0.104
2877.67	0.0834
2886.72	0.075
2895.78	0.0549
2904.83	0.0191
2913.89	0.0159
2922.94	0.016
2932	0.0152
2941.05	0.0184
2950.1	0.0261
2959.16	0.0159
2968.21	0.0187
2977.27	0.0165
2986.32	0.0221
2995.38	0.0501
3004.43	0.1344
3013.48	0.3518
3022.54	0.5471
3031.59	0.6917
3040.65	0.7075
3049.7	0.6957
3058.76	0.7024
3067.81	0.7322
3076.86	0.7642
3085.92	0.769
3094.97	0.7556
3104.03	0.7536
3113.08	0.7293
3122.14	0.7002
3131.19	0.68
3140.24	0.6705
3149.3	0.6781
3158.35	0.6879
3167.41	0.6987
3176.46	0.7043
3185.52	0.7021
3194.57	0.7028
3203.62	0.7066
3212.68	0.7222
3221.73	0.7354
3230.79	0.732
3239.84	0.7286
3248.9	0.7364
3257.95	0.7594
3267	0.7958
3276.06	0.8191
3285.11	0.8441
3294.17	0.8563
3303.22	0.8628
3312.28	0.8646
3321.33	0.8673
3330.38	0.8763
3339.44	0.8803
3348.49	0.8799
3357.55	0.8748
3366.6	0.8655
3375.66	0.8532
3384.71	0.8411
3393.76	0.8377
3402.82	0.8489
3411.87	0.8641
3420.93	0.8761
3429.98	0.8721
3439.03	0.8741
3448.09	0.879
3457.14	0.8763
3466.2	0.8722
3475.25	0.8684
3484.31	0.8653
3493.36	0.864
3502.41	0.8659
3511.47	0.8716
3520.52	0.8782
3529.58	0.8826
3538.63	0.8828
3547.69	0.8877
3556.74	0.8893
3565.79	0.8888
3574.85	0.8885
3583.9	0.8952
3592.96	0.8951
3602.01	0.8946
3611.07	0.8937
3620.12	0.8937
3629.17	0.8944
3638.23	0.8948
3647.28	0.894
3656.34	0.8901
3665.39	0.8881
3674.45	0.8934
3683.5	0.8987
3692.55	0.9021
3701.61	0.9021
3710.66	0.9009
3719.72	0.9
3728.77	0.9022
3737.83	0.9054
3746.88	0.9087
3755.93	0.9067
3764.99	0.898
3774.04	0.8913
3783.1	0.8926
3792.15	0.8925
3801.21	0.8895
3810.26	0.8886
3819.31	0.897
3828.37	0.9029
3837.42	0.8969
3846.48	0.8891
3855.53	0.8881
3864.59	0.8876
3873.64	0.8861
3882.69	0.881
3891.75	0.8786
3900.8	0.8711
3909.86	0.8688
3918.91	0.8619
3927.97	0.8596
3937.02	0.8669
3946.07	0.8626
3955.13	0.8564
3964.18	0.8631
3973.24	0.8621
3982.29	0.8635
3991.35	0.8677
4000.4	0.8701
4009.45	0.8671
4018.51	0.8588
