Infrared Spectrum: Cyclobutanemethanol
Formula: C 5 H 10 O
CAS: 4415-82-1
State: gas
Origin: Sadtler Research Labs Under US-EPA Contract
1/CM	ABSORBANCE
450	0.00475867
462	0.0252889
474	0.0138681
486	0.0261047
498	0.0338545
510	0.0101972
522	0.0266486
534	0.010605
546	0.0129164
558	0.0171312
570	0.0176751
582	0.00774983
594	0.0152277
606	0.0184908
618	0.035894
630	0.0365738
642	0.0455473
654	0.0304555
666	0.0152277
678	0.0222978
690	0.0126445
702	0.0146839
714	0.0156356
726	0.00842964
738	0.017811
750	0.0292318
762	0.0221618
774	0.0212101
786	0.0208022
798	0.0202583
810	0.0154997
822	0.0229776
834	0.0187628
846	0.0247451
858	0.0273284
870	0.0417403
882	0.0411965
894	0.0470429
906	0.060775
918	0.075187
930	0.0747791
942	0.075187
954	0.0817132
966	0.108362
978	0.16397
990	0.233311
1002	0.410061
1014	0.616588
1026	0.656832
1038	0.454385
1050	0.425561
1062	0.362611
1074	0.234942
1086	0.189531
1098	0.195241
1110	0.194018
1122	0.155133
1134	0.116248
1146	0.0912305
1158	0.0765466
1170	0.0833447
1182	0.0973488
1194	0.104419
1206	0.104555
1218	0.111625
1230	0.129708
1242	0.157036
1254	0.162339
1266	0.136506
1278	0.101292
1290	0.0765466
1302	0.0651258
1314	0.067981
1326	0.0882393
1338	0.11448
1350	0.122638
1362	0.127804
1374	0.165058
1386	0.199864
1398	0.174031
1410	0.102515
1422	0.0753229
1434	0.0769545
1446	0.0810334
1458	0.0912305
1470	0.0897349
1482	0.0683889
1494	0.0387492
1506	0.0289599
1518	0.0263766
1530	0.0224337
1542	0.0212101
1554	0.0188987
1566	0.0146839
1578	0.017811
1590	0.0135962
1602	0.0167233
1614	0.0182189
1626	0.0130524
1638	0.0167233
1650	0.0199864
1662	0.00951734
1674	0.0153637
1686	0.0114208
1698	0.0096533
1710	0.00611829
1722	0.00611829
1734	0.00135962
1746	0.00299116
1758	0.00584637
1770	0.0057104
1782	0.00367097
1794	0.00707002
1806	0.0119647
1818	0.0114208
1830	0.0100612
1842	0.00598233
1854	0.0067981
1866	0.00856561
1878	0.0067981
1890	0.00734195
1902	0.00747791
1914	0.00625425
1926	0.0078858
1938	0.00802176
1950	0.00707002
1962	0.00720599
1974	0.00897349
1986	0.00924542
1998	0.00938138
2010	0.0103331
2022	0.0135962
2034	0.0149558
2046	0.0126445
2058	0.0104691
2070	0.00978926
2082	0.00910945
2094	0.00883753
2106	0.00924542
2118	0.00951734
2130	0.0101972
2142	0.0110129
2154	0.0115568
2166	0.010877
2178	0.00951734
2190	0.00938138
2202	0.00938138
2214	0.00842964
2226	0.00639021
2238	0.00530252
2250	0.00475867
2262	0.00407886
2274	0.0039429
2286	0.00475867
2298	0.00842964
2310	0.0121006
2322	0.0110129
2334	0.00951734
2346	0.0183549
2358	0.00978926
2370	0.00815772
2382	0.0057104
2394	0.00258328
2406	0.00217539
2418	0.00312713
2430	0.00271924
2442	0.00258328
2454	0.00163154
2466	0.00163154
2478	0.0010877
2490	0.000407886
2502	0.000271924
2514	0.000815772
2526	0.00149558
2538	0.000815772
2550	0.00217539
2562	0.00244732
2574	0.00326309
2586	0.00339905
2598	0.00448675
2610	0.00557444
2622	0.00707002
2634	0.00870157
2646	0.0111489
2658	0.0138681
2670	0.0157716
2682	0.017811
2694	0.0198505
2706	0.0228416
2718	0.0259687
2730	0.0297757
2742	0.0348063
2754	0.0387492
2766	0.042964
2778	0.0478586
2790	0.0543848
2802	0.0584637
2814	0.0664854
2826	0.0913665
2838	0.156628
2850	0.306186
2862	0.563698
2874	0.768049
2886	0.757716
2898	0.675459
2910	0.704419
2922	0.892862
2934	1.08783
2946	1.19347
2958	1.31502
2970	1.33025
2982	1.33583
2994	0.814412
3006	0.395649
3018	0.128212
3030	0.0590075
3042	0.0455473
3054	0.0410605
3066	0.0352142
3078	0.0281441
3090	0.0208022
3102	0.0159076
3114	0.0119647
3126	0.00856561
3138	0.00707002
3150	0.00639021
3162	0.00489463
3174	0.00557444
3186	0.00652618
3198	0.00557444
3210	0.00530252
3222	0.00516656
3234	0.00516656
3246	0.0039429
3258	0.00326309
3270	0.00299116
3282	0.00367097
3294	0.0028552
3306	0.00271924
3318	0.00299116
3330	0.00353501
3342	0.0028552
3354	0.00258328
3366	0.00353501
3378	0.00244732
3390	0.000951734
3402	0.00203943
3414	0.0028552
3426	0.00407886
3438	0.00625425
3450	0.0057104
3462	0.00639021
3474	0.00557444
3486	0.00462271
3498	0.00611829
3510	0.00367097
3522	0.0039429
3534	0.00435078
3546	0.00380694
3558	0.0010877
3570	0.00380694
3582	0.00353501
3594	0.00557444
3606	0.00707002
3618	0.0103331
3630	0.0295038
3642	0.0606391
3654	0.123589
3666	0.168185
3678	0.134874
3690	0.0754589
3702	0.0244732
3714	0.0104691
3726	0.00271924
3738	0.000815772
3750	0.0100612
3762	0.000135962
3774	0.000543848
3786	0.00067981
3798	0.00339905
3810	0.0057104
3822	0.0039429
3834	0.00666214
3846	0.00774983
3858	0.00339905
3870	0.00720599
3882	0.00367097
3894	0.00244732
3906	0.00625425
3918	0.0067981
3930	0.00435078
3942	0.00421482
3954	0.00910945
3966	0.00666214
