Infrared Spectrum: Cyclopentene
Formula: C 5 H 8
CAS: 142-29-0
State: gas
Instrument: HP-GC/MS/IRD
Origin: NIST Mass Spectrometry Data Center
1/CM	ABSORBANCE
550	0.0002844
562	0.0005004
574	0.000603
586	0.0007704
598	0.001557
610	0.001359
622	0.0014346
634	0.0015516
646	0.0018558
658	0.0022518
670	0.0032544
682	0.0034452
694	0.0065916
706	0.002988
718	0.0029844
730	0.0021708
742	0.000963
754	0.0006714
766	0.0003258
778	0.000243
790	0.0001674
802	0.0001116
814	9.72e-05
826	4.5e-05
838	4.86e-05
850	0.0001314
862	0.000387
874	0.0007362
886	0.0012672
898	0.001593
910	0.0010854
922	0.0008784
934	0.0003744
946	0.0001908
958	0.0001854
970	0.0002646
982	0.0003564
994	0.0002034
1006	0.000459
1018	0.0008982
1030	0.0010566
1042	0.0021348
1054	0.000738
1066	0.0007794
1078	0.00036
1090	8.28e-05
1102	3.06e-05
1114	0.0001206
1126	0.000198
1138	0.0001872
1150	0.0002322
1162	0.0002448
1174	0.0002934
1186	0.0003582
1198	0.0004698
1210	0.000747
1222	0.0005544
1234	0.0004986
1246	0.0003798
1258	0.0003834
1270	0.0004806
1282	0.0005688
1294	0.000576
1306	0.0004968
1318	0.0004158
1330	0.0004824
1342	0.0005508
1354	0.0005436
1366	0.0004914
1378	0.0003006
1390	0.0002034
1402	0.0002376
1414	0.0003312
1426	0.0004518
1438	0.0005994
1450	0.000738
1462	0.000639
1474	0.000513
1486	0.000297
1498	0.0001548
1510	5.94e-05
1522	4.86e-05
1534	9e-05
1546	6.66e-05
1558	0.0001206
1570	0.0001674
1582	0.000306
1594	0.0005112
1606	0.0007092
1618	0.000819
1630	0.0007614
1642	0.0005436
1654	0.0003168
1666	0.0001602
1678	0.000126
1690	8.28e-05
1702	5.58e-05
1714	7.2e-05
1726	9.36e-05
1738	9.72e-05
1750	7.2e-05
1762	5.58e-05
1774	5.76e-05
1786	5.76e-05
1798	8.64e-05
1810	7.56e-05
1822	6.12e-05
1834	5.76e-05
1846	6.84e-05
1858	8.1e-05
1870	6.84e-05
1882	7.56e-05
1894	7.02e-05
1906	0.0001044
1918	6.66e-05
1930	7.02e-05
1942	7.38e-05
1954	8.28e-05
1966	0.000108
1978	0.0001152
1990	9e-05
2002	6.66e-05
2014	2.34e-05
2026	1.08e-05
2038	2.88e-05
2050	4.5e-05
2062	6.12e-05
2074	8.82e-05
2086	6.84e-05
2098	4.68e-05
2110	5.58e-05
2122	4.86e-05
2134	5.94e-05
2146	8.82e-05
2158	8.82e-05
2170	0.0001062
2182	0.0001314
2194	8.82e-05
2206	0.0001026
2218	7.38e-05
2230	8.1e-05
2242	6.66e-05
2254	8.1e-05
2266	7.38e-05
2278	7.92e-05
2290	6.66e-05
2302	8.1e-05
2314	6.48e-05
2326	9.18e-05
2338	8.64e-05
2350	6.3e-05
2362	1.44e-05
2374	1.98e-05
2386	2.7e-05
2398	4.32e-05
2410	1.26e-05
2422	2.88e-05
2434	3.06e-05
2446	3.42e-05
2458	1.8e-05
2470	3.6e-05
2482	2.52e-05
2494	4.68e-05
2506	4.32e-05
2518	5.58e-05
2530	4.32e-05
2542	6.66e-05
2554	5.76e-05
2566	6.12e-05
2578	8.64e-05
2590	6.12e-05
2602	2.16e-05
2614	5.22e-05
2626	1.26e-05
2638	3.6e-05
2650	4.14e-05
2662	4.32e-05
2674	5.22e-05
2686	4.5e-05
2698	9e-05
2710	0.0001422
2722	0.0001926
2734	0.0002628
2746	0.000333
2758	0.000333
2770	0.0004032
2782	0.0004536
2794	0.0005616
2806	0.000855
2818	0.0014508
2830	0.0030816
2842	0.0063252
2854	0.0085392
2866	0.009369
2878	0.0102708
2890	0.0095364
2902	0.0097596
2914	0.0132498
2926	0.0134136
2938	0.0153396
2950	0.0151794
2962	0.018
2974	0.009423
2986	0.0067176
2998	0.003492
3010	0.0017874
3022	0.0015444
3034	0.0024768
3046	0.00432
3058	0.0051408
3070	0.0052182
3082	0.004383
3094	0.0021258
3106	0.0006066
3118	0.0002394
3130	0.000144
3142	9.36e-05
3154	7.92e-05
3166	3.06e-05
3178	6.66e-05
3190	0.0001026
3202	0.0001584
3214	0.0001224
3226	9e-05
3238	8.1e-05
3250	3.78e-05
3262	1.44e-05
3274	8.46e-05
3286	4.32e-05
3298	0.0001062
3310	9.54e-05
3322	6.48e-05
3334	4.5e-05
3346	6.84e-05
3358	3.42e-05
3370	7.38e-05
3382	6.3e-05
3394	4.86e-05
3406	1.44e-05
3418	7.02e-05
3430	8.28e-05
3442	3.6e-06
3454	5.4e-05
3466	9.36e-05
3478	2.7e-05
3490	7.74e-05
3502	6.66e-05
3514	9.9e-05
3526	0.0001152
3538	0.0001242
3550	0.0001296
3562	5.76e-05
3574	0.0001152
3586	0.0001134
3598	0.0001116
3610	5.04e-05
3622	7.38e-05
3634	5.76e-05
3646	7.02e-05
3658	5.94e-05
3670	0.0001206
3682	0.0001044
3694	0.0001242
3706	6.84e-05
3718	0.000144
3730	0.0001116
3742	6.12e-05
3754	2.7e-05
3766	9e-05
3778	9.72e-05
3790	0.0001188
3802	0.0001278
3814	0.000144
3826	0.0002538
3838	0.0003006
