Infrared Spectrum: 2-Methyl-2-aminobutane
Formula: C 5 H 13 N
CAS: 594-39-8
State: gas
Instrument: HP-GC/MS/IRD
Origin: NIST Mass Spectrometry Data Center
1/CM	ABSORBANCE
550	0.001155
562	0.0002233
574	0.0004928
586	0.0005236
598	0.000616
610	0.0006699
622	0.0009856
634	0.0010164
646	0.001309
658	0.0017941
670	0.0023716
682	0.0028567
694	0.0035497
706	0.0044429
718	0.0049973
730	0.0056133
742	0.0068222
754	0.0092862
766	0.0125048
778	0.016324
790	0.0204281
802	0.0230384
814	0.0205898
826	0.013706
838	0.0070609
850	0.0037499
862	0.0028875
874	0.0028952
886	0.0028105
898	0.0022176
910	0.0014938
922	0.0013475
934	0.0015554
946	0.0019789
958	0.0018095
970	0.0014553
982	0.0011704
994	0.0016016
1006	0.0024024
1018	0.0025256
1030	0.002156
1042	0.0019481
1054	0.0016632
1066	0.0013013
1078	0.0006006
1090	0.0004004
1102	0.0006314
1114	0.0006853
1126	0.0009163
1138	0.0011781
1150	0.001925
1162	0.0033264
1174	0.0056672
1186	0.0085855
1198	0.0106414
1210	0.009779
1222	0.0067067
1234	0.0043197
1246	0.0032725
1258	0.0030107
1270	0.0031724
1282	0.0030107
1294	0.0025333
1306	0.0020097
1318	0.001694
1330	0.0019173
1342	0.0033341
1354	0.0065219
1366	0.0113652
1378	0.0120505
1390	0.0094941
1402	0.0045199
1414	0.0019327
1426	0.0019866
1438	0.0038192
1450	0.0068299
1462	0.0090321
1474	0.0083699
1486	0.0055979
1498	0.0030492
1510	0.0019481
1522	0.0016016
1534	0.0014861
1546	0.0015708
1558	0.001848
1570	0.0021868
1582	0.002926
1594	0.0043197
1606	0.0061292
1618	0.0073381
1630	0.0066836
1642	0.0046046
1654	0.0025333
1666	0.0013321
1678	0.0007777
1690	0.0005236
1702	0.0004312
1714	0.0003311
1726	0.0002464
1738	0.0002387
1750	0.0001925
1762	0.0001309
1774	9.24e-05
1786	6.16e-05
1798	5.39e-05
1810	1.54e-05
1822	6.93e-05
1834	2.31e-05
1846	5.39e-05
1858	0
1870	2.31e-05
1882	5.39e-05
1894	3.85e-05
1906	1.54e-05
1918	3.08e-05
1930	0
1942	0
1954	0
1966	7.7e-05
1978	4.62e-05
1990	0.0001001
2002	0.0001386
2014	0.0001155
2026	0.000154
2038	0.0001309
2050	0.0001232
2062	0.0001078
2074	0.0001771
2086	0.0002079
2098	0.0001771
2110	0.0001386
2122	0.0001386
2134	0.0001848
2146	0.0001694
2158	0.0001848
2170	0.0001617
2182	0.000231
2194	0.0001694
2206	0.0002002
2218	0.0002002
2230	0.0002464
2242	0.0002541
2254	0.0002772
2266	0.0002695
2278	0.0002772
2290	0.0003003
2302	0.0002772
2314	0.0002695
2326	0.0003234
2338	0.0003311
2350	0.0003003
2362	0.0003465
2374	0.0003157
2386	0.0003234
2398	0.0002849
2410	0.0003388
2422	0.0002772
2434	0.0002618
2446	0.0002772
2458	0.000231
2470	0.0002618
2482	0.0002772
2494	0.0002387
2506	0.0002079
2518	0.0003311
2530	0.000308
2542	0.000308
2554	0.0003465
2566	0.000385
2578	0.0004081
2590	0.0004312
2602	0.0004774
2614	0.0004928
2626	0.0005005
2638	0.0005236
2650	0.0006391
2662	0.0007084
2674	0.0006853
2686	0.000693
2698	0.0008162
2710	0.0009856
2722	0.001155
2734	0.0013244
2746	0.0013706
2758	0.0014014
2770	0.0014168
2782	0.0016478
2794	0.0020174
2806	0.0024409
2818	0.0030954
2830	0.0043736
2842	0.007084
2854	0.0117425
2866	0.0174097
2878	0.0232617
2890	0.0272349
2902	0.0301609
2914	0.034419
2926	0.0399399
2938	0.0447755
2950	0.0560637
2962	0.0736428
2974	0.0737814
2986	0.0486332
2998	0.0206668
3010	0.0074921
3022	0.0039424
3034	0.0028413
3046	0.0024948
3058	0.002387
3070	0.0024332
3082	0.0022869
3094	0.0019404
3106	0.00154
3118	0.0013783
3130	0.0013398
3142	0.001155
3154	0.0012243
3166	0.0012705
3178	0.0012705
3190	0.0012243
3202	0.0012243
3214	0.0012474
3226	0.0010472
3238	0.0009548
3250	0.0007392
3262	0.0005544
3274	0.0005775
3286	0.0005621
3298	0.0007238
3310	0.0011165
3322	0.0015169
3334	0.0015862
3346	0.0011088
3358	0.000693
3370	0.0005852
3382	0.0005467
3394	0.0005236
3406	0.0005698
3418	0.0004774
3430	0.000385
3442	0.0003542
3454	0.0003542
3466	0.0003542
3478	0.0003311
3490	0.0002849
3502	0.0002002
3514	0.0002695
3526	0.0001694
3538	0.0002464
3550	0.0002541
3562	0.0002387
3574	0.000231
3586	0.0003003
3598	0.0002387
3610	0.0003234
3622	0.0003157
3634	0.0003003
3646	0.000308
3658	0.0002849
3670	0.0004081
3682	0.0003542
3694	0.0002926
3706	0.0003157
3718	0.0002541
3730	0.0002695
3742	0.0004235
3754	0.0003388
3766	0.0004466
3778	0.0002926
3790	0.0003157
3802	0.000308
3814	0.0004389
3826	0.0004235
3838	0.0004466
