Infrared Spectrum: Ethanol, 2,2-dichloro-
Formula: C 2 H 4 Cl 2 O
CAS: 598-38-9
State: gas
Origin: Sadtler Research Labs Under US-EPA Contract
1/CM	ABSORBANCE
450	0
462	0.0338887
474	0.0330504
486	0.0322122
498	0.0228719
510	0.0198782
522	0.0274223
534	0.0317332
546	0.0417921
558	0.0526891
570	0.0796324
582	0.0671786
594	0.0329307
606	0.0306555
618	0.0378404
630	0.0578383
642	0.137351
654	0.340683
666	0.451091
678	0.386307
690	0.206565
702	0.224767
714	0.230874
726	0.0548446
738	0.0389181
750	0.0804707
762	0.23746
774	0.638616
786	0.873442
798	0.735372
810	0.331702
822	0.151361
834	0.0625085
846	0.0434685
858	0.0273025
870	0.0217941
882	0.0229916
894	0.0274223
906	0.0401156
918	0.0680169
930	0.0865778
942	0.0920862
954	0.158906
966	0.216265
978	0.192435
990	0.125855
1002	0.122742
1014	0.115317
1026	0.129807
1038	0.242849
1050	0.537429
1062	1.10911
1074	1.1327
1086	0.60341
1098	0.253267
1110	0.138548
1122	0.0678971
1134	0.0346072
1146	0.0367626
1158	0.0632269
1170	0.173275
1182	0.230156
1194	0.182496
1206	0.200817
1218	0.214349
1230	0.174832
1242	0.123939
1254	0.152798
1266	0.287754
1278	0.287156
1290	0.129807
1302	0.0777165
1314	0.0778362
1326	0.105737
1338	0.157229
1350	0.167048
1362	0.149206
1374	0.20441
1386	0.272906
1398	0.23279
1410	0.129208
1422	0.0609517
1434	0.0358047
1446	0.0511324
1458	0.0792732
1470	0.0676576
1482	0.0402353
1494	0.0255063
1506	0.0227521
1518	0.0215546
1530	0.0193992
1542	0.0168845
1554	0.0178425
1566	0.0180819
1578	0.0177227
1590	0.0185609
1602	0.0180819
1614	0.017124
1626	0.0159265
1638	0.0164055
1650	0.0158067
1662	0.0158067
1674	0.015687
1686	0.0159265
1698	0.0158067
1710	0.0165252
1722	0.017124
1734	0.0164055
1746	0.0158067
1758	0.0165252
1770	0.0182017
1782	0.0173635
1794	0.0170042
1806	0.0168845
1818	0.016166
1830	0.016645
1842	0.0160462
1854	0.016645
1866	0.0172437
1878	0.0164055
1890	0.016645
1902	0.0170042
1914	0.0168845
1926	0.0180819
1938	0.0183214
1950	0.0174832
1962	0.017603
1974	0.0173635
1986	0.017603
1998	0.0180819
2010	0.0182017
2022	0.0183214
2034	0.0182017
2046	0.0177227
2058	0.0178425
2070	0.0190399
2082	0.0217941
2094	0.0255063
2106	0.0295778
2118	0.0312542
2130	0.029458
2142	0.0259853
2154	0.0211954
2166	0.0195189
2178	0.0197584
2190	0.0196387
2202	0.0186807
2214	0.0182017
2226	0.0179622
2238	0.0182017
2250	0.0185609
2262	0.0179622
2274	0.0182017
2286	0.0188004
2298	0.0199979
2310	0.0204769
2322	0.0192794
2334	0.0180819
2346	0.0201177
2358	0.0164055
2370	0.0217941
2382	0.0220336
2394	0.0208362
2406	0.0209559
2418	0.0228719
2430	0.0239496
2442	0.0249076
2454	0.0243088
2466	0.0211954
2478	0.0209559
2490	0.0209559
2502	0.0207164
2514	0.0205967
2526	0.0202374
2538	0.0195189
2550	0.0189202
2562	0.0178425
2574	0.0172437
2586	0.0174832
2598	0.0180819
2610	0.0183214
2622	0.0185609
2634	0.0192794
2646	0.0192794
2658	0.0191597
2670	0.0208362
2682	0.0221534
2694	0.0217941
2706	0.0219139
2718	0.0233509
2730	0.0243088
2742	0.0233509
2754	0.0229916
2766	0.0221534
2778	0.0219139
2790	0.0225126
2802	0.0240693
2814	0.0265841
2826	0.031374
2838	0.0364034
2850	0.0434685
2862	0.0607122
2874	0.102983
2886	0.14753
2898	0.120706
2910	0.088374
2922	0.110288
2934	0.161181
2946	0.184412
2958	0.162738
2970	0.152559
2982	0.145015
2994	0.0894518
3006	0.074603
3018	0.0560421
3030	0.0301765
3042	0.0207164
3054	0.0193992
3066	0.0193992
3078	0.0199979
3090	0.0195189
3102	0.0190399
3114	0.0186807
3126	0.017124
3138	0.017603
3150	0.0178425
3162	0.0182017
3174	0.0173635
3186	0.0185609
3198	0.0183214
3210	0.017603
3222	0.0182017
3234	0.0192794
3246	0.0186807
3258	0.0190399
3270	0.0209559
3282	0.0219139
3294	0.0253866
3306	0.0222731
3318	0.0225126
3330	0.0197584
3342	0.0219139
3354	0.0215546
3366	0.0226324
3378	0.0220336
3390	0.0220336
3402	0.0199979
3414	0.0239496
3426	0.0225126
3438	0.0222731
3450	0.0207164
3462	0.0203572
3474	0.0211954
3486	0.0219139
3498	0.0235904
3510	0.0234706
3522	0.0214349
3534	0.0213151
3546	0.0231114
3558	0.0245483
3570	0.0252668
3582	0.0249076
3594	0.0290988
3606	0.0544853
3618	0.196985
3630	0.360322
3642	0.341641
3654	0.160343
3666	0.0979539
3678	0.0505337
3690	0.0322122
3702	0.0257458
3714	0.0258656
3726	0.0253866
3738	0.0288593
3750	0.0286198
3762	0.0288593
3774	0.0300567
3786	0.0255063
3798	0.0225126
3810	0.0198782
3822	0.0221534
3834	0.0252668
3846	0.0257458
3858	0.0209559
3870	0.0196387
3882	0.0214349
3894	0.0216744
3906	0.0302962
3918	0.0233509
3930	0.0263446
3942	0.0288593
3954	0.0274223
3966	0.0324517
