Infrared Spectrum: 1,2-DICHLOROBUTANE
Formula: C4 H8 Cl2
CAS: 616-21-7
Class: COBLENTZ
Instrument: Not specified, most likely a prism, grating, or hybrid spectrometer.
Sampling: TRANSMISSION
Path length: 0.0025 CM
Resolution: 4
Origin: W.T. BOLLETER
MICROMETERS	TRANSMITTANCE
14.509	0.183
14.5792	0.176
14.6495	0.151
14.7197	0.101
14.7899	0.064
14.8601	0.049
14.9304	0.028
15.0006	0.023
15.0708	0.023
15.1411	0.023
15.2113	0.019
15.2815	0.021
15.3517	0.023
15.422	0.024
15.4922	0.028
15.5624	0.044
15.6327	0.051
15.7029	0.071
15.7731	0.101
15.8433	0.106
15.9136	0.099
15.9838	0.085
16.054	0.046
16.1243	0.039
16.1945	0.042
16.2647	0.055
16.335	0.112
16.4052	0.199
16.4754	0.293
16.5456	0.414
16.6159	0.5
16.6861	0.549
16.7563	0.601
16.8266	0.645
16.8968	0.663
16.967	0.679
17.0372	0.692
17.1075	0.702
17.1777	0.711
17.2479	0.72
17.3182	0.724
17.3884	0.731
17.4586	0.729
17.5288	0.718
17.5991	0.708
17.6693	0.697
17.7395	0.656
17.8098	0.61
17.88	0.528
17.9502	0.405
18.0204	0.259
18.0907	0.17
18.1609	0.151
18.2311	0.204
18.3014	0.327
18.3716	0.444
18.4418	0.519
18.512	0.56
18.5823	0.553
18.6525	0.505
18.7227	0.432
18.793	0.336
18.8632	0.265
18.9334	0.236
19.0036	0.265
19.0739	0.318
19.1441	0.389
19.2143	0.451
19.2846	0.466
19.3548	0.467
19.425	0.48
19.4952	0.519
19.5655	0.599
19.6357	0.672
19.7059	0.747
19.7762	0.781
19.8464	0.807
19.9166	0.827
19.9869	0.841
20.0571	0.848
20.1273	0.852
20.1975	0.854
20.2678	0.857
20.338	0.857
20.4082	0.854
20.4785	0.852
20.5487	0.848
20.6189	0.845
20.6891	0.839
20.7594	0.829
20.8296	0.818
20.8998	0.802
20.9701	0.788
21.0403	0.759
21.1105	0.733
21.1807	0.685
21.251	0.626
21.3212	0.549
21.3914	0.469
21.4617	0.389
21.5319	0.302
21.6021	0.268
21.6723	0.25
21.7426	0.29
21.8128	0.361
21.883	0.441
21.9533	0.505
22.0235	0.594
22.0937	0.647
22.1639	0.685
22.2342	0.727
22.3044	0.749
22.3746	0.772
22.4449	0.79
22.5151	0.804
22.5853	0.811
22.6555	0.823
22.7258	0.829
22.796	0.836
22.8662	0.839
22.9365	0.846
23.0067	0.85
23.0769	0.855
23.1472	0.859
23.2174	0.862
23.2876	0.862
23.3578	0.861
23.4281	0.859
23.4983	0.857
23.5685	0.854
23.6388	0.85
23.709	0.843
23.7792	0.838
23.8494	0.822
23.9197	0.804
23.9899	0.782
24.0601	0.752
24.1304	0.706
24.2006	0.669
24.2708	0.613
24.341	0.569
24.4113	0.533
24.4815	0.526
24.5517	0.521
24.622	0.521
24.6922	0.517
24.7624	0.494
24.8326	0.434
24.9029	0.421
24.9731	0.379
25.0433	0.322
25.1136	0.272
25.1838	0.25
25.254	0.218
25.3242	0.213
25.3945	0.22
25.4647	0.231
25.5349	0.256
25.6052	0.288
25.6754	0.304
25.7456	0.311
25.8158	0.313
25.8861	0.302
25.9563	0.291
26.0265	0.272
26.0968	0.258
26.167	0.249
26.2372	0.236
26.3075	0.233
26.3777	0.243
26.4479	0.263
26.5181	0.298
26.5884	0.361
26.6586	0.43
26.7288	0.498
26.7991	0.539
26.8693	0.585
26.9395	0.628
27.0097	0.651
27.08	0.672
27.1502	0.692
27.2204	0.699
27.2907	0.702
27.3609	0.704
27.4311	0.701
27.5013	0.688
27.5716	0.674
27.6418	0.653
27.712	0.628
27.7823	0.599
27.8525	0.567
27.9227	0.549
27.9929	0.532
28.0632	0.517
28.1334	0.516
28.2036	0.517
28.2739	0.528
28.3441	0.533
28.4143	0.551
28.4845	0.571
28.5548	0.601
28.625	0.622
28.6952	0.66
28.7655	0.685
28.8357	0.701
28.9059	0.72
28.9761	0.729
29.0464	0.736
29.1166	0.736
29.1868	0.736
29.2571	0.736
29.3273	0.724
29.3975	0.709
29.4677	0.702
29.538	0.685
29.6082	0.651
29.6784	0.624
29.7487	0.599
29.8189	0.553
29.8891	0.517
29.9594	0.492
30.0296	0.471
30.0998	0.46
30.17	0.45
30.2403	0.45
30.3105	0.455
30.3807	0.46
30.451	0.467
30.5212	0.476
30.5914	0.485
30.6616	0.5
30.7319	0.53
30.8021	0.565
30.8723	0.599
30.9426	0.613
31.0128	0.667
31.083	0.702
31.1532	0.738
31.2235	0.774
31.2937	0.802
31.3639	0.818
31.4342	0.83
31.5044	0.848
31.5746	0.859
31.6448	0.868
31.7151	0.873
31.7853	0.875
31.8555	0.884
31.9258	0.895
31.996	0.902
32.0662	0.905
32.1364	0.911
32.2067	0.914
32.2769	0.918
32.3471	0.921
32.4174	0.927
32.4876	0.928
32.5578	0.932
32.628	0.939
32.6983	0.951
32.7685	0.957
32.8387	0.96
32.909	0.969
32.9792	0.967
33.0494	0.957
33.1197	0.943
33.1899	0.932
33.2601	0.932
33.3303	0.934
33.4006	0.935
33.4708	0.941
33.541	0.946
33.6113	0.948
33.6815	0.948
33.7517	0.95
33.8219	0.948
33.8922	0.946
33.9624	0.944
34.0326	0.941
34.1029	0.943
34.1731	0.943
34.2433	0.941
34.3135	0.943
34.3838	0.944
34.454	0.943
34.5242	0.941
34.5945	0.939
34.6647	0.939
34.7349	0.937
34.8051	0.935
34.8754	0.939
34.9456	0.941
35.0158	0.946
35.0861	0.95
35.1563	0.957
35.2265	0.964
35.2967	0.964
35.367	0.962
35.4372	0.96
35.5074	0.96
35.5777	0.959
35.6479	0.957
35.7181	0.955
35.7883	0.953
35.8586	0.95
35.9288	0.943
35.999	0.937
36.0693	0.932
36.1395	0.921
36.2097	0.918
36.2799	0.911
36.3502	0.905
36.4204	0.902
36.4906	0.895
36.5609	0.882
36.6311	0.879
36.7013	0.877
36.7716	0.868
36.8418	0.861
36.912	0.855
36.9822	0.852
37.0525	0.846
37.1227	0.839
37.1929	0.834
37.2632	0.832
37.3334	0.829
37.4036	0.823
37.4738	0.822
37.5441	0.82
37.6143	0.816
37.6845	0.814
37.7548	0.811
37.825	0.809
37.8952	0.807
37.9654	0.804
