Infrared Spectrum: 1,2-BUTYLENE CHLORIDE
Formula: C4 H8 Cl2
CAS: 616-21-7
State: SOLUTION (10% CCl4 FOR 2.5-7.5, 10% CS2 FOR 7.5-16 MICRONS)
Class: COBLENTZ
Instrument: Not specified, most likely a prism, grating, or hybrid spectrometer.
Sampling: TRANSMISSION
Path length: 0.01 CM, 0.01 CM
Resolution: 4
Origin: DOW CHEMICAL COMPANY
MICROMETERS	TRANSMITTANCE
1.998	0.9
2.03809	0.898
2.07818	0.898
2.11827	0.893
2.15836	0.89
2.19845	0.882
2.23854	0.867
2.27863	0.863
2.31872	0.863
2.35881	0.868
2.3989	0.875
2.43899	0.883
2.47908	0.888
2.51917	0.892
2.55926	0.898
2.59935	0.897
2.63944	0.892
2.67953	0.892
2.71962	0.89
2.75971	0.887
2.7998	0.87
2.83989	0.873
2.87998	0.872
2.92007	0.87
2.96016	0.865
3.00025	0.868
3.04034	0.868
3.08043	0.865
3.12052	0.863
3.16061	0.872
3.2007	0.872
3.24079	0.862
3.28088	0.83
3.32097	0.674
3.36106	0.355
3.40115	0.526
3.44124	0.692
3.48133	0.754
3.52142	0.842
3.56151	0.872
3.6016	0.878
3.64169	0.872
3.68178	0.883
3.72187	0.888
3.76195	0.892
3.80204	0.893
3.84213	0.89
3.88222	0.893
3.92231	0.888
3.9624	0.893
4.00249	0.893
4.04258	0.888
4.08267	0.892
4.12276	0.892
4.16285	0.893
4.20294	0.893
4.24303	0.883
4.28312	0.875
4.32321	0.868
4.3633	0.87
4.40339	0.887
4.44348	0.893
4.48357	0.895
4.52366	0.893
4.56375	0.89
4.60384	0.898
4.64393	0.903
4.68402	0.897
4.72411	0.892
4.7642	0.9
4.80429	0.901
4.84438	0.901
4.88447	0.898
4.92456	0.897
4.96465	0.895
5.00474	0.897
5.04483	0.9
5.08492	0.9
5.12501	0.898
5.1651	0.901
5.20519	0.905
5.24528	0.898
5.28537	0.893
5.32546	0.895
5.36555	0.895
5.40564	0.892
5.44573	0.895
5.48582	0.9
5.52591	0.903
5.566	0.903
5.60609	0.906
5.64618	0.905
5.68627	0.905
5.72636	0.905
5.76645	0.892
5.80654	0.9
5.84663	0.903
5.88672	0.9
5.92681	0.895
5.9669	0.887
6.00699	0.887
6.04708	0.883
6.08717	0.87
6.12726	0.865
6.16735	0.847
6.20744	0.8
6.24753	0.712
6.28762	0.641
6.32771	0.622
6.3678	0.571
6.40789	0.513
6.44798	0.473
6.48807	0.534
6.52816	0.609
6.56825	0.651
6.60834	0.697
6.64843	0.749
6.68852	0.765
6.72861	0.777
6.7687	0.659
6.80879	0.478
6.84888	0.493
6.88897	0.503
6.92906	0.491
6.96915	0.642
7.00924	0.75
7.04933	0.83
7.08942	0.835
7.12951	0.808
7.1696	0.689
7.20968	0.622
7.24977	0.755
7.28986	0.812
7.32995	0.81
7.37004	0.823
7.41013	0.845
7.45022	0.837
7.49031	0.825
7.5304	0.795
7.57049	0.765
7.61058	0.714
7.65067	0.674
7.69076	0.664
7.73085	0.669
7.77094	0.752
7.81103	0.764
7.85112	0.666
7.89121	0.612
7.9313	0.621
7.97139	0.671
8.01148	0.734
8.05157	0.74
8.09166	0.702
8.13175	0.674
8.17184	0.636
8.21193	0.607
8.25202	0.719
8.29211	0.755
8.3322	0.759
8.37229	0.759
8.41238	0.691
8.45247	0.626
8.49256	0.657
8.53265	0.714
8.57274	0.749
8.61283	0.764
8.65292	0.762
8.69301	0.76
8.7331	0.767
8.77319	0.772
8.81328	0.767
8.85337	0.752
8.89346	0.752
8.93355	0.754
8.97364	0.75
9.01373	0.732
9.05382	0.73
9.09391	0.734
9.134	0.75
9.17409	0.754
9.21418	0.739
9.25427	0.707
9.29436	0.681
9.33445	0.654
9.37454	0.654
9.41463	0.689
9.45472	0.696
9.49481	0.689
9.5349	0.71
9.57499	0.742
9.61508	0.754
9.65517	0.755
9.69526	0.764
9.73535	0.774
9.77544	0.77
9.81553	0.765
9.85562	0.762
9.89571	0.76
9.9358	0.76
9.97589	0.762
10.016	0.774
10.0561	0.784
10.0962	0.785
10.1362	0.784
10.1763	0.779
10.2164	0.785
10.2565	0.792
10.2966	0.792
10.3367	0.79
10.3768	0.789
10.4169	0.779
10.457	0.762
10.4971	0.744
10.5371	0.732
10.5772	0.699
10.6173	0.622
10.6574	0.564
10.6975	0.581
10.7376	0.654
10.7777	0.702
10.8178	0.687
10.8579	0.659
10.898	0.677
10.938	0.705
10.9781	0.724
11.0182	0.75
11.0583	0.77
11.0984	0.774
11.1385	0.772
11.1786	0.792
11.2187	0.803
11.2588	0.802
11.2989	0.779
11.3389	0.759
11.379	0.755
11.4191	0.755
11.4592	0.745
11.4993	0.729
11.5394	0.712
11.5795	0.7
11.6196	0.691
11.6597	0.687
11.6998	0.691
11.7398	0.7
11.7799	0.732
11.82	0.757
11.8601	0.774
11.9002	0.792
11.9403	0.797
11.9804	0.787
12.0205	0.75
12.0606	0.682
12.1007	0.631
12.1407	0.622
12.1808	0.641
12.2209	0.677
12.261	0.679
12.3011	0.647
12.3412	0.626
12.3813	0.662
12.4214	0.702
12.4615	0.704
12.5015	0.682
12.5416	0.657
12.5817	0.647
12.6218	0.649
12.6619	0.682
12.702	0.71
12.7421	0.739
12.7822	0.755
12.8223	0.769
12.8624	0.775
12.9024	0.784
12.9425	0.789
12.9826	0.787
13.0227	0.777
13.0628	0.765
13.1029	0.745
13.143	0.725
13.1831	0.679
13.2232	0.622
13.2633	0.574
13.3033	0.546
13.3434	0.528
13.3835	0.509
13.4236	0.456
13.4637	0.397
13.5038	0.313
13.5439	0.222
13.584	0.164
13.6241	0.149
13.6642	0.207
13.7042	0.29
13.7443	0.397
13.7844	0.483
13.8245	0.536
13.8646	0.569
13.9047	0.583
13.9448	0.588
13.9849	0.584
14.025	0.593
14.0651	0.598
14.1051	0.607
14.1452	0.612
14.1853	0.619
14.2254	0.626
14.2655	0.637
14.3056	0.644
14.3457	0.646
14.3858	0.647
14.4259	0.647
14.466	0.647
14.506	0.641
14.5461	0.634
14.5862	0.624
14.6263	0.611
14.6664	0.601
14.7065	0.583
14.7466	0.564
14.7867	0.534
14.8268	0.501
14.8669	0.483
14.9069	0.455
14.947	0.428
14.9871	0.393
15.0272	0.342
15.0673	0.29
15.1074	0.254
15.1475	0.225
15.1876	0.212
15.2277	0.207
15.2678	0.212
15.3078	0.237
15.3479	0.265
15.388	0.302
15.4281	0.333
15.4682	0.358
15.5083	0.38
15.5484	0.398
15.5885	0.406
15.6286	0.415
15.6687	0.418
15.7087	0.418
15.7488	0.418
15.7889	0.418
15.829	0.418
15.8691	0.416
