Infrared Spectrum: PROPENAL
Formula: C3 H4 O
CAS: 107-02-8
State: GAS (100 mmHg, N2 ADDED, TOTAL PRESSURE 600 mmHg)
Class: COBLENTZ
Instrument: DOW KBr FOREPRISM-GRATING
Instrument parameters: GRATING CHANGED AT 5.0, 7.5, 15.0 MICRON
Sampling: TRANSMISSION
Path length: 5 CM
Resolution: 2
Origin: DOW CHEMICAL COMPANY
1/CM	TRANSMITTANCE
379.947	1.006
389.182	1.014
398.417	1.016
407.651	1.012
416.886	1.014
426.121	1.008
435.356	1.006
444.591	1.004
453.826	1.002
463.06	1.004
472.295	1.004
481.53	1.002
490.765	0.995
500	0.985
509.235	0.967
518.469	0.948
527.704	0.93
536.939	0.899
546.174	0.798
555.409	0.698
564.643	0.687
573.878	0.638
583.113	0.681
592.348	0.521
601.583	0.755
610.818	0.78
620.052	0.839
629.287	0.895
638.522	0.95
647.757	0.995
656.992	1.014
666.227	1.028
675.461	1.041
684.696	1.041
693.931	1.045
703.166	1.043
712.401	1.024
721.635	1.004
730.87	0.995
740.105	1
749.34	1.01
758.575	1.028
767.81	1.045
777.044	1.053
786.279	1.051
795.514	1.045
804.749	1.043
813.984	1.03
823.219	1.022
832.453	1.018
841.688	1.004
850.923	1
860.158	0.993
869.393	0.985
878.627	0.956
887.862	0.831
897.097	0.39
906.332	0.277
915.567	0.149
924.802	0.164
934.036	0.236
943.271	0.314
952.506	0.209
961.741	0.254
970.976	0.246
980.21	0.266
989.445	0.25
998.68	0.398
1007.91	0.443
1017.15	0.55
1026.38	0.652
1035.62	0.778
1044.85	0.862
1054.09	0.917
1063.32	0.936
1072.56	0.934
1081.79	0.924
1091.03	0.919
1100.26	0.913
1109.5	0.876
1118.73	0.761
1127.97	0.591
1137.2	0.316
1146.44	0.182
1155.67	0.182
1164.91	0.219
1174.14	0.312
1183.38	0.728
1192.61	0.854
1201.85	0.874
1211.08	0.893
1220.32	0.893
1229.55	0.874
1238.79	0.862
1248.02	0.872
1257.26	0.874
1266.49	0.852
1275.72	0.885
1284.96	0.854
1294.19	0.887
1303.43	0.909
1312.66	0.913
1321.9	0.913
1331.13	0.909
1340.37	0.852
1349.6	0.694
1358.84	0.839
1368.07	0.698
1377.31	0.798
1386.54	0.825
1395.78	0.753
1405.01	0.581
1414.25	0.402
1423.48	0.542
1432.72	0.449
1441.95	0.749
1451.19	0.895
1460.42	0.86
1469.66	0.845
1478.89	0.856
1488.13	0.831
1497.36	0.85
1506.6	0.845
1515.83	0.921
1525.07	0.915
1534.3	0.915
1543.53	0.895
1552.77	0.903
1562	0.889
1571.24	0.895
1580.47	0.889
1589.71	0.868
1598.94	0.833
1608.18	0.782
1617.41	0.71
1626.65	0.823
1635.88	0.716
1645.12	0.811
1654.35	0.856
1663.59	0.802
1672.82	0.677
1682.06	0.552
1691.29	0.256
1700.53	0.016
1709.76	0.012
1719	0.01
1728.23	0.012
1737.47	0.022
1746.7	0.453
1755.94	0.62
1765.17	0.712
1774.41	0.854
1783.64	0.882
1792.87	0.878
1802.11	0.819
1811.34	0.735
1820.58	0.761
1829.81	0.665
1839.05	0.841
1848.28	0.897
1857.52	0.913
1866.75	0.907
1875.99	0.909
1885.22	0.909
1894.46	0.887
1903.69	0.77
1912.93	0.728
1922.16	0.696
1931.4	0.724
1940.63	0.885
1949.87	0.919
1959.1	0.917
1968.34	0.917
1977.57	0.913
1986.81	0.907
1996.04	0.911
2005.28	0.915
2014.51	0.924
2023.75	0.9153
2032.98	0.8923
2042.22	0.876
2051.45	0.856
2060.68	0.8668
2069.92	0.8975
2079.15	0.9226
2088.39	0.9408
2097.62	0.9454
2106.86	0.946
2116.09	0.946
2125.33	0.946
2134.56	0.946
2143.8	0.946
2153.03	0.946
2162.27	0.948
2171.5	0.9509
2180.74	0.954
2189.97	0.954
2199.21	0.956
2208.44	0.956
2217.68	0.956
2226.91	0.956
2236.15	0.9526
2245.38	0.948
2254.62	0.946
2263.85	0.9397
2273.09	0.94
2282.32	0.94
2291.56	0.9391
2300.79	0.94
2310.03	0.938
2319.26	0.9418
2328.49	0.946
2337.73	0.9556
2346.96	0.9611
2356.2	0.965
2365.43	0.965
2374.67	0.963
2383.9	0.96
2393.14	0.9566
2402.37	0.9496
2411.61	0.948
2420.84	0.9482
2430.08	0.9532
2439.31	0.9632
2448.55	0.9722
2457.78	0.981
2467.02	0.983
2476.25	0.983
2485.49	0.983
2494.72	0.983
2503.96	0.9823
2513.19	0.981
2522.43	0.981
2531.66	0.981
2540.9	0.979
2550.13	0.977
2559.37	0.975
2568.6	0.975
2577.83	0.975
2587.07	0.973
2596.3	0.9688
2605.54	0.9615
2614.77	0.9482
2624.01	0.9371
2633.24	0.9015
2642.48	0.8532
2651.71	0.7597
2660.95	0.6587
2670.18	0.5567
2679.42	0.4729
2688.65	0.5803
2697.89	0.385
2707.12	0.3967
2716.36	0.4284
2725.59	0.3811
2734.83	0.3409
2744.06	0.2812
2753.3	0.3386
2762.53	0.225
2771.77	0.2338
2781	0.2004
2790.24	0.2294
2799.47	0.3396
2808.71	0.1936
2817.94	0.2299
2827.18	0.312
2836.41	0.4433
2845.64	0.488
2854.88	0.5839
2864.11	0.7022
2873.35	0.7884
2882.58	0.8592
2891.82	0.8931
2901.05	0.9012
2910.29	0.901
2919.52	0.896
2928.76	0.8805
2937.99	0.8688
2947.23	0.872
2956.46	0.8626
2965.7	0.8466
2974.93	0.835
2984.17	0.7882
2993.4	0.741
3002.64	0.7879
3011.87	0.7851
3021.11	0.8234
3030.34	0.852
3039.58	0.8548
3048.81	0.8405
3058.05	0.818
3067.28	0.813
3076.52	0.7764
3085.75	0.7265
3094.98	0.671
3104.22	0.7651
3113.45	0.7094
3122.69	0.723
3131.92	0.8588
3141.16	0.891
3150.39	0.9205
3159.63	0.9454
3168.86	0.958
3178.1	0.9643
3187.33	0.9672
3196.57	0.969
3205.8	0.969
3215.04	0.969
3224.27	0.965
3233.51	0.96
3242.74	0.96
3251.98	0.96
3261.21	0.9687
3270.45	0.971
3279.68	0.969
3288.92	0.969
3298.15	0.9675
3307.39	0.967
3316.62	0.963
3325.86	0.956
3335.09	0.9508
3344.33	0.95
3353.56	0.946
3362.79	0.956
3372.03	0.955
3381.26	0.9481
3390.5	0.9278
3399.73	0.8912
3408.97	0.7706
3418.2	0.724
3427.44	0.7234
3436.67	0.6879
3445.91	0.8732
3455.14	0.9392
3464.38	0.9504
3473.61	0.9533
3482.85	0.956
3492.08	0.956
3501.32	0.954
3510.55	0.954
3519.79	0.952
3529.02	0.949
3538.26	0.952
3547.49	0.95
3556.73	0.9538
3565.96	0.9466
3575.2	0.952
3584.43	0.944
3593.67	0.944
3602.9	0.948
3612.14	0.9374
3621.37	0.9363
3630.6	0.946
3639.84	0.9478
3649.07	0.9402
3658.31	0.9341
3667.54	0.946
3676.78	0.9053
3686.01	0.9398
3695.25	0.924
3704.48	0.938
3713.72	0.9177
3722.95	0.934
3732.19	0.934
3741.42	0.9128
3750.66	0.9208
3759.89	0.8874
