Infrared Spectrum: 2-Propenal
Formula: C 3 H 4 O
CAS: 107-02-8
State: gas
Origin: Sadtler Research Labs Under US-EPA Contract
1/CM	ABSORBANCE
450	0.0420283
462	0.01503
474	0.0119683
486	0
498	0.00751499
510	0.0136383
522	0.019205
534	0.034235
546	0.0662433
558	0.0762632
570	0.0901799
582	0.0968599
594	0.0935199
606	0.0695832
618	0.0623466
630	0.0537183
642	0.0425849
654	0.0334
666	0.0289466
678	0.02338
690	0.0261633
702	0.0311733
714	0.0372966
726	0.0425849
738	0.0398016
750	0.0320083
762	0.027555
774	0.025885
786	0.02505
798	0.0286683
810	0.030895
822	0.0345133
834	0.0378533
846	0.0414716
858	0.0431416
870	0.0526049
882	0.0885099
894	0.234913
906	0.365173
918	0.495711
930	0.528276
942	0.332608
954	0.442271
966	0.33901
978	0.343741
990	0.368791
1002	0.256066
1014	0.217378
1026	0.161711
1038	0.12358
1050	0.0904582
1062	0.0815516
1074	0.0974166
1086	0.0954682
1098	0.0840566
1110	0.110777
1122	0.169226
1134	0.28557
1146	0.400521
1158	0.406366
1170	0.371575
1182	0.154753
1194	0.0876749
1206	0.0779332
1218	0.0732016
1230	0.0796032
1242	0.0965816
1254	0.0971382
1266	0.0834999
1278	0.0834999
1290	0.0834999
1302	0.0807166
1314	0.0723666
1326	0.0779332
1338	0.0662433
1350	0.124972
1362	0.0885099
1374	0.107437
1386	0.12191
1398	0.138053
1410	0.235748
1422	0.19873
1434	0.185091
1446	0.108828
1458	0.0372966
1470	0.0899016
1482	0.106323
1494	0.0843349
1506	0.0347916
1518	0.030895
1530	0.04008
1542	0.00946332
1554	0.0581716
1566	0.0784899
1578	0.0871182
1590	0.104097
1602	0.12692
1614	0.142506
1626	0.10688
1638	0.106323
1650	0.0723666
1662	0.11189
1674	0.118013
1686	0.279446
1698	0.975279
1710	2.27148
1722	1.56785
1734	2.78333
1746	0.487639
1758	0.143063
1770	0.0851699
1782	0.0592849
1794	0.0520483
1806	0.0918499
1818	0.0971382
1830	0.0860049
1842	0.0712532
1854	0.0590066
1866	0.0431416
1878	0.0528833
1890	0.0475949
1902	0.0846132
1914	0.0784899
1926	0.0918499
1938	0.0743149
1950	0.0436983
1962	0.04008
1974	0.0381316
1986	0.0361833
1998	0.0328433
2010	0.0334
2022	0.0281116
2034	0.0378533
2046	0.0386883
2058	0.0428633
2070	0.0347916
2082	0.0256066
2094	0.0169783
2106	0.0164216
2118	0.0139167
2130	0.0119683
2142	0.012525
2154	0.00946332
2166	0.00834999
2178	0.00779332
2190	0.00500999
2202	0.00473166
2214	0.00334
2226	0.00111333
2238	0.00194833
2250	0.00278333
2262	0.00306166
2274	0.00473166
2286	0.00528833
2298	0.00473166
2310	0.00640166
2322	0.00528833
2334	0.00584499
2346	0.00528833
2358	0.00306166
2370	0.00306166
2382	0.00334
2394	0.00334
2406	0.00612333
2418	0.00695833
2430	0.00584499
2442	0.00556666
2454	0.00334
2466	0.00167
2478	0.002505
2490	0.00222666
2502	0.00222666
2514	0.00361833
2526	0.00306166
2538	0.00389666
2550	0.00389666
2562	0.00473166
2574	0.00500999
2586	0.00584499
2598	0.00667999
2610	0.0114117
2622	0.0180916
2634	0.029225
2646	0.0484299
2658	0.0706966
2670	0.10688
2682	0.156145
2694	0.114117
2706	0.207915
2718	0.23213
2730	0.259406
2742	0.289745
2754	0.264973
2766	0.326763
2778	0.34402
2790	0.354318
2802	0.252726
2814	0.388553
2826	0.296981
2838	0.218213
2850	0.192885
2862	0.11523
2874	0.0706966
2886	0.0448116
2898	0.029225
2910	0.0214316
2922	0.022545
2934	0.0269983
2946	0.03006
2958	0.0331216
2970	0.0372966
2982	0.0500999
2994	0.0492649
3006	0.0503783
3018	0.0506566
3030	0.0411933
3042	0.0436983
3054	0.0495433
3066	0.0517699
3078	0.0662433
3090	0.0809949
3102	0.0595633
3114	0.0720882
3126	0.0459249
3138	0.0256066
3150	0.0167
3162	0.00974166
3174	0.00500999
3186	0.00361833
3198	0.00278333
3210	0.00222666
3222	0.00306166
3234	0.00361833
3246	0.00222666
3258	0.00306166
3270	0.00194833
3282	0.00111333
3294	0.00194833
3306	0.002505
3318	0.00306166
3330	0.00528833
3342	0.00473166
3354	0.00584499
3366	0.00473166
3378	0.00612333
3390	0.0180916
3402	0.04008
3414	0.0528833
3426	0.0545533
3438	0.0459249
3450	0.00890666
3462	0.00334
3474	0.00167
3486	0.00111333
3498	0.00278333
3510	0.00194833
3522	0.00306166
3534	0.00361833
3546	0.00473166
3558	0.00361833
3570	0.00584499
3582	0.000556666
3594	0.00417499
3606	0.00278333
3618	0.00306166
3630	0.00417499
3642	0.00278333
3654	0.00306166
3666	0.00222666
3678	0.00473166
3690	0.00278333
3702	0.00361833
3714	0.00556666
3726	0.00528833
3738	0.00667999
3750	0.00222666
3762	0.00306166
3774	0.00361833
3786	0.00194833
3798	0.00473166
3810	0.00334
3822	0.00334
3834	0.00334
3846	0.00389666
3858	0.002505
3870	0.00584499
3882	0.00389666
3894	0.00528833
3906	0.00640166
3918	0.00584499
3930	0.00584499
3942	0.00473166
3954	0.00473166
3966	0.00528833
