Infrared Spectrum: 2-PROPENALDEHYDE
Formula: C3 H4 O
CAS: 107-02-8
State: SOLUTION (10% IN CCl4 FOR 3800-1333, 10% IN CS2 FOR 1333-450 CM^-^1)
Class: COBLENTZ III
Instrument: DOW KBr FOREPRISM-GRATING
Instrument parameters: BLAZED AT 3.5, 12.0, 20.0 MICRON, CHANGED AT 5.0, 7.5, 14.9 MICRON
Sampling: TRANSMISSION
Path length: 0.011, 0.011 CM
Resolution: 4
Origin: DOW CHEMICAL COMPANY
1/CM	TRANSMITTANCE
444.254	0.951
452.83	0.965
461.407	0.975
469.983	0.979
478.559	0.982
487.136	0.987
495.712	0.987
504.288	0.982
512.865	0.978
521.441	0.966
530.017	0.965
538.594	0.946
547.17	0.904
555.746	0.775
564.323	0.645
572.899	0.738
581.475	0.633
590.052	0.56
598.628	0.741
607.205	0.888
615.781	0.942
624.357	0.957
632.934	0.943
641.51	0.91
650.086	0.906
658.663	0.954
667.239	0.965
675.815	0.983
684.392	0.989
692.968	0.993
701.544	0.994
710.121	0.99
718.697	0.99
727.273	0.989
735.85	0.986
744.426	0.989
753.002	0.997
761.579	1.005
770.155	1.004
778.731	1.004
787.308	1.004
795.884	1
804.46	1.001
813.037	0.989
821.613	0.977
830.189	0.942
838.766	0.856
847.342	0.828
855.918	0.851
864.495	0.868
873.071	0.878
881.648	0.852
890.224	0.734
898.8	0.4519
907.377	0.164
915.953	0.479
924.529	0.618
933.106	0.548
941.682	0.405
950.258	0.151
958.835	0.1
967.411	0.204
975.987	0.153
984.564	0.24
993.14	0.528
1001.72	0.689
1010.29	0.815
1018.87	0.862
1027.45	0.892
1036.02	0.907
1044.6	0.922
1053.17	0.942
1061.75	0.947
1070.33	0.942
1078.9	0.934
1087.48	0.939
1096.06	0.939
1104.63	0.923
1113.21	0.892
1121.79	0.777
1130.36	0.622
1138.94	0.408
1147.51	0.104
1156.09	0.186
1164.67	0.651
1173.24	0.827
1181.82	0.898
1190.4	0.937
1198.97	0.957
1207.55	0.941
1216.12	0.962
1224.7	0.981
1233.28	0.97
1241.85	0.957
1250.43	0.938
1259.01	0.895
1267.58	0.761
1276.16	0.895
1284.74	0.939
1293.31	0.954
1301.89	0.959
1310.46	0.959
1319.04	0.953
1327.62	0.935
1336.19	0.918
1344.77	0.863
1353.35	0.527
1361.92	0.4881
1370.5	0.868
1379.08	0.894
1387.65	0.875
1396.23	0.805
1404.8	0.725
1413.38	0.34
1421.96	0.6771
1430.53	0.876
1439.11	0.91
1447.69	0.917
1456.26	0.914
1464.84	0.902
1473.42	0.86
1481.99	0.82
1490.57	0.815
1499.14	0.796
1507.72	0.763
1516.3	0.726
1524.87	0.682
1533.45	0.607
1542.03	0.523
1550.6	0.518
1559.18	0.58
1567.75	0.635
1576.33	0.642
1584.91	0.651
1593.48	0.68
1602.06	0.633
1610.64	0.587
1619.21	0.68
1627.79	0.791
1636.37	0.799
1644.94	0.768
1653.52	0.582
1662.09	0.515
1670.67	0.449
1679.25	0.218
1687.82	0.009
1696.4	0.005
1704.98	0.005
1713.55	0.061
1722.13	0.214
1730.71	0.444
1739.28	0.614
1747.86	0.728
1756.43	0.811
1765.01	0.854
1773.59	0.887
1782.16	0.907
1790.74	0.922
1799.32	0.915
1807.89	0.88
1816.47	0.785
1825.05	0.808
1833.62	0.878
1842.2	0.922
1850.77	0.943
1859.35	0.947
1867.93	0.947
1876.5	0.953
1885.08	0.959
1893.66	0.959
1902.23	0.938
1910.81	0.891
1919.39	0.816
1927.96	0.813
1936.54	0.86
1945.11	0.892
1953.69	0.917
1962.27	0.934
1970.84	0.957
1979.42	0.961
1988	0.961
1996.57	0.961
2005.15	0.973
2013.72	0.981
2022.3	0.9688
2030.88	0.954
2039.45	0.9625
2048.03	0.9739
2056.61	0.9577
2065.18	0.9352
2073.76	0.9714
2082.34	0.9933
2090.91	1.0064
2099.49	1.01
2108.06	1.01
2116.64	1.0122
2125.22	1.014
2133.79	1.0127
2142.37	1.01
2150.95	1.0123
2159.52	1.013
2168.1	1.012
2176.68	1.01
2185.25	1.013
2193.83	1.014
2202.4	1.016
2210.98	1.013
2219.56	1.013
2228.13	1.0111
2236.71	1.0071
2245.29	1.0015
2253.86	0.9885
2262.44	0.9735
2271.02	0.9741
2279.59	0.977
2288.17	0.9734
2296.74	0.965
2305.32	0.9682
2313.9	0.973
2322.47	0.9759
2331.05	0.9962
2339.63	1.0033
2348.2	1.009
2356.78	1.008
2365.35	1.0057
2373.93	1.008
2382.51	1.004
2391.08	1.005
2399.66	1.0024
2408.24	0.9902
2416.81	0.966
2425.39	0.9827
2433.97	1.001
2442.54	1.0086
2451.12	1.01
2459.69	1.012
2468.27	1.012
2476.85	1.012
2485.42	1.009
2494	1.005
2502.58	1.001
2511.15	1.001
2519.73	1.004
2528.31	1.005
2536.88	1.0041
2545.46	1.004
2554.03	1.001
2562.61	0.9909
2571.19	0.9931
2579.76	0.997
2588.34	0.9925
2596.92	0.9828
2605.49	0.971
2614.07	0.9668
2622.65	0.9565
2631.22	0.9497
2639.8	0.9424
2648.37	0.9255
2656.95	0.8984
2665.53	0.856
2674.1	0.7765
2682.68	0.5766
2691.26	0.4
2699.83	0.5277
2708.41	0.7216
2716.98	0.7446
2725.56	0.7094
2734.14	0.5779
2742.71	0.3679
2751.29	0.301
2759.87	0.4476
2768.44	0.6175
2777.02	0.5782
2785.6	0.4498
2794.17	0.2001
2802.75	0.2296
2811.32	0.3232
2819.9	0.483
2828.48	0.4918
2837.05	0.471
2845.63	0.5728
2854.21	0.686
2862.78	0.8029
2871.36	0.8362
2879.94	0.8613
2888.51	0.8823
2897.09	0.8948
2905.66	0.9096
2914.24	0.9118
2922.82	0.9167
2931.39	0.9229
2939.97	0.9221
2948.55	0.9141
2957.12	0.8902
2965.7	0.8511
2974.28	0.8551
2982.85	0.7783
2991.43	0.8355
3000	0.894
3008.58	0.899
3017.16	0.8908
3025.73	0.8741
3034.31	0.8909
3042.89	0.8718
3051.46	0.8183
3060.04	0.8072
3068.62	0.8689
3077.19	0.8665
3085.77	0.829
3094.34	0.8453
3102.92	0.8924
3111.5	0.9093
3120.07	0.9307
3128.65	0.9415
3137.23	0.9508
3145.8	0.955
3154.38	0.9583
3162.95	0.961
3171.53	0.961
3180.11	0.9637
3188.68	0.966
3197.26	0.966
3205.84	0.966
3214.41	0.965
3222.99	0.9601
3231.57	0.9649
3240.14	0.971
3248.72	0.973
3257.29	0.971
3265.87	0.97
3274.45	0.97
3283.02	0.967
3291.6	0.9575
3300.18	0.944
3308.75	0.9224
3317.33	0.9408
3325.91	0.9586
3334.48	0.958
3343.06	0.9533
3351.63	0.9348
3360.21	0.8748
3368.79	0.7761
3377.36	0.6922
3385.94	0.7793
3394.52	0.8789
3403.09	0.9206
3411.67	0.9375
3420.25	0.9458
3428.82	0.955
3437.4	0.955
3445.97	0.958
3454.55	0.959
3463.13	0.9592
3471.7	0.9551
3480.28	0.9569
3488.86	0.954
3497.43	0.953
3506.01	0.947
3514.58	0.945
3523.16	0.943
3531.74	0.942
3540.31	0.943
3548.89	0.946
3557.47	0.9492
3566.04	0.9419
3574.62	0.9531
3583.2	0.9595
3591.77	0.9586
3600.35	0.966
3608.92	0.963
3617.5	0.9685
3626.08	0.965
3634.65	0.969
3643.23	0.966
3651.81	0.961
3660.38	0.9547
3668.96	0.938
3677.54	0.9424
3686.11	0.9645
3694.69	0.9774
3703.26	0.9838
3711.84	0.9894
3720.42	0.993
3728.99	0.997
3737.57	0.995
3746.15	0.994
3754.72	0.992
3763.3	0.991
3771.88	0.9921
3780.45	0.993
3789.03	0.9936
3797.6	0.994
