Infrared Spectrum: Furan, tetrahydro-
Formula: C 4 H 8 O
CAS: 109-99-9
State: gas
Origin: Sadtler Research Labs Under US-EPA Contract
1/CM	ABSORBANCE
450	0.0306598
462	0.00593807
474	0.00921006
486	0.00799821
498	0.00109066
510	0.0119973
522	0.00666517
534	0.0112702
546	0.00472621
558	0.00787702
570	0.00533214
582	0.00872532
594	0.00472621
606	0.0101795
618	0.0135727
630	0.0156329
642	0.0277514
654	0.0267819
666	0.0214497
678	0.0169659
690	0.0147846
702	0.00933125
714	0.0088465
726	0.00824058
738	0.00678636
750	0.00618043
762	0.00690755
774	0.0106643
786	0.0146634
798	0.015754
810	0.0193896
822	0.0204803
834	0.0249641
846	0.032114
858	0.0409605
870	0.0548968
882	0.0833753
894	0.132698
906	0.208923
918	0.288663
930	0.21983
942	0.133303
954	0.0722263
966	0.0437478
978	0.0278725
990	0.0271454
1002	0.0316293
1014	0.0444749
1026	0.0641069
1038	0.091737
1050	0.171598
1062	0.374583
1074	0.578052
1086	0.603622
1098	0.502433
1110	0.233402
1122	0.0765889
1134	0.0464139
1146	0.0414453
1158	0.0482316
1170	0.0578052
1182	0.0647128
1194	0.0626526
1206	0.053079
1218	0.0421724
1230	0.0408393
1242	0.0390216
1254	0.0375673
1266	0.0330835
1278	0.0259336
1290	0.0225404
1302	0.0181777
1314	0.0132092
1326	0.00945243
1338	0.0127244
1350	0.0252065
1362	0.0262971
1374	0.0256912
1386	0.0208438
1398	0.00981598
1410	0.00860414
1422	0.0109067
1434	0.0214497
1446	0.0364767
1458	0.0454444
1470	0.0439902
1482	0.0325988
1494	0.0173295
1506	0.00993717
1518	0.00751347
1530	0.00557451
1542	0.00472621
1554	0.00387792
1566	0.00315081
1578	0.00218133
1590	0.00169659
1602	0.0015754
1614	0.00133303
1626	0.00133303
1638	0.00169659
1650	0.00169659
1662	0.0015754
1674	0.00230251
1686	0.00254489
1698	0.00290844
1710	0.00315081
1722	0.00339318
1734	0.00387792
1746	0.00363555
1758	0.00424147
1770	0.00460503
1782	0.00521095
1794	0.00521095
1806	0.00545333
1818	0.00618043
1830	0.00593807
1842	0.00593807
1854	0.00545333
1866	0.00448385
1878	0.00375673
1890	0.00351437
1902	0.00387792
1914	0.00460503
1926	0.00533214
1938	0.00654399
1950	0.0088465
1962	0.0116338
1974	0.014421
1986	0.0159964
1998	0.0142998
2010	0.0107855
2022	0.00702873
2034	0.00460503
2046	0.00339318
2058	0.00460503
2070	0.00472621
2082	0.00472621
2094	0.0048474
2106	0.00545333
2118	0.00569569
2130	0.00545333
2142	0.00569569
2154	0.00618043
2166	0.00642281
2178	0.00630162
2190	0.00605925
2202	0.00642281
2214	0.00605925
2226	0.00557451
2238	0.00545333
2250	0.0048474
2262	0.00496859
2274	0.00533214
2286	0.00569569
2298	0.00508977
2310	0.00569569
2322	0.00836177
2334	0.00618043
2346	0.00302963
2358	0.0096948
2370	0.00024237
2382	0.00024237
2394	0.00290844
2406	0.00254489
2418	0.0015754
2430	0.00072711
2442	0.00072711
2454	0.00096948
2466	0.00109066
2478	0.00109066
2490	0.00121185
2502	0.000848295
2514	0.00121185
2526	0.00145422
2538	0.00206015
2550	0.00302963
2562	0.00339318
2574	0.00448385
2586	0.00545333
2598	0.00714991
2610	0.00811939
2622	0.00908887
2634	0.0121185
2646	0.015754
2658	0.019632
2670	0.0247217
2682	0.0265395
2694	0.0272666
2706	0.0226616
2718	0.0191472
2730	0.0170871
2742	0.0187837
2754	0.020965
2766	0.0292056
2778	0.0389004
2790	0.0580476
2802	0.0860414
2814	0.128941
2826	0.207226
2838	0.318838
2850	0.456989
2862	0.544969
2874	0.590292
2886	0.557572
2898	0.513097
2910	0.48474
2922	0.453838
2934	0.419179
2946	0.508492
2958	0.634888
2970	0.669547
2982	1.21185
2994	0.515763
3006	0.412393
3018	0.190988
3030	0.0810728
3042	0.0435054
3054	0.0276302
3066	0.0178142
3078	0.0106643
3090	0.00763465
3102	0.00521095
3114	0.00460503
3126	0.00424147
3138	0.00460503
3150	0.00230251
3162	0.00315081
3174	0.00339318
3186	0.00254489
3198	0.00351437
3210	0.00339318
3222	0.00339318
3234	0.00290844
3246	0.00351437
3258	0.00181777
3270	0.00230251
3282	0.00436266
3294	0.00254489
3306	0.0048474
3318	0.00327199
3330	0.00412029
3342	0.00412029
3354	0.00412029
3366	0.00290844
3378	0.00327199
3390	0.0015754
3402	0.00363555
3414	0.00363555
3426	0.00230251
3438	0.00290844
3450	0.00121185
3462	0.00508977
3474	0.00206015
3486	0.00496859
3498	0.000363555
3510	0.00290844
3522	0.00375673
3534	0.00315081
3546	0.00315081
3558	0.00302963
3570	0.00399911
3582	0.00375673
3594	0.00363555
3606	0.00290844
3618	0.00290844
3630	0.00266607
3642	0.00145422
3654	0.00024237
3666	0.00206015
3678	0.00290844
3690	0.00206015
3702	0.00278725
3714	0.000605925
3726	0.000363555
3738	0.00557451
3750	0.00278725
3762	0.00230251
3774	0.00218133
3786	0.00181777
3798	0.00218133
3810	0.000605925
3822	0.00327199
3834	0.00339318
3846	0.00387792
3858	0.00121185
3870	0.00230251
3882	0.00181777
3894	0.00206015
3906	0.00145422
3918	0.00387792
3930	0.00266607
3942	0.00399911
3954	0.00521095
3966	0.00945243
