Infrared Spectrum: Furan, tetrahydro-
Formula: C4 H8 O
CAS: 109-99-9
State: GAS (100 mmHg, N2 ADDED, TOTAL PRESSURE 600 mmHg)
Class: COBLENTZ
Instrument: DOW KBr FOREPRISM-GRATING
Instrument parameters: GRATING CHANGED AT 5.0, 7.5, 15.0 MICRON
Sampling: TRANSMISSION
Path length: 5 CM
Resolution: 2
Origin: DOW CHEMICAL COMPANY
1/CM	TRANSMITTANCE
460	0.9027
469	0.9027
478	0.9022
487	0.9021
496	0.9007
505	0.8947
514	0.894
523	0.8961
532	0.8961
541	0.8959
550	0.8967
559	0.8994
568	0.9014
577	0.9013
586	0.9003
595	0.8958
604	0.889
613	0.8747
622	0.8533
631	0.8247
640	0.7889
649	0.7665
658	0.753
667	0.7617
676	0.7769
685	0.7965
694	0.8169
703	0.8401
712	0.8606
721	0.87
730	0.8741
739	0.8763
748	0.8757
757	0.872
766	0.8654
775	0.8551
784	0.8346
793	0.807
802	0.7992
811	0.7934
820	0.7883
829	0.7776
838	0.7566
847	0.7211
856	0.7033
865	0.6293
874	0.565
883	0.5086
892	0.4435
901	0.2687
910	0.1492
919	0.0922
928	0.1495
937	0.1994
946	0.3957
955	0.5367
964	0.6775
973	0.7386
982	0.7799
991	0.7905
1000	0.7773
1009	0.724
1018	0.653
1027	0.5978
1036	0.5606
1045	0.5093
1054	0.4298
1063	0.1224
1072	0.0172
1081	0.011
1090	0.0115
1099	0.0206
1108	0.1605
1117	0.4084
1126	0.6045
1135	0.6972
1144	0.7133
1153	0.7112
1162	0.6479
1171	0.6094
1180	0.5491
1189	0.5614
1198	0.5888
1207	0.6067
1216	0.6761
1225	0.6776
1234	0.6872
1243	0.6658
1252	0.6619
1261	0.6857
1270	0.7174
1279	0.7495
1288	0.7618
1297	0.7688
1306	0.7968
1315	0.8325
1324	0.8576
1333	0.8671
1342	0.8451
1351	0.7969
1360	0.7292
1369	0.6887
1378	0.7176
1387	0.7938
1396	0.8425
1405	0.85
1414	0.8456
1423	0.8309
1432	0.8085
1441	0.7157
1450	0.638
1459	0.592
1468	0.5893
1477	0.632
1486	0.7197
1495	0.8002
1504	0.8219
1513	0.8412
1522	0.8493
1531	0.858
1540	0.8594
1549	0.8724
1558	0.8735
1567	0.8852
1576	0.884
1585	0.8924
1594	0.8943
1603	0.8959
1612	0.8947
1621	0.8964
1630	0.8901
1639	0.8913
1648	0.8811
1657	0.8867
1666	0.8871
1675	0.8843
1684	0.8773
1693	0.8833
1702	0.8776
1711	0.8853
1720	0.8835
1729	0.8834
1738	0.8789
1747	0.8772
1756	0.8747
1765	0.8721
1774	0.8711
1783	0.8706
1792	0.8695
1801	0.8677
1810	0.866
1819	0.8642
1828	0.8616
1837	0.8601
1846	0.8591
1855	0.8642
1864	0.871
1873	0.8754
1882	0.8768
1891	0.8756
1900	0.8744
1909	0.873
1918	0.8712
1927	0.8684
1936	0.8649
1945	0.8597
1954	0.8509
1963	0.8341
1972	0.8116
1981	0.7926
1990	0.7897
1999	0.7938
2008	0.8098
2017	0.8339
2026	0.853
2035	0.8672
2044	0.8729
2053	0.873
2062	0.8738
2071	0.8732
2080	0.8723
2089	0.8712
2098	0.8699
2107	0.8686
2116	0.8685
2125	0.8673
2134	0.8654
2143	0.8629
2152	0.8612
2161	0.8601
2170	0.8598
2179	0.8599
2188	0.8604
2197	0.8614
2206	0.8631
2215	0.8656
2224	0.8685
2233	0.8691
2242	0.8685
2251	0.8673
2260	0.8659
2269	0.863
2278	0.8626
2287	0.865
2296	0.8685
2305	0.8715
2314	0.8731
2323	0.8748
2332	0.876
2341	0.8762
2350	0.8752
2359	0.8723
2368	0.8715
2377	0.8735
2386	0.876
2395	0.8791
2404	0.8816
2413	0.8837
2422	0.8863
2431	0.8878
2440	0.8885
2449	0.8888
2458	0.8886
2467	0.8881
2476	0.8875
2485	0.8867
2494	0.8858
2503	0.8839
2512	0.8808
2521	0.8772
2530	0.8739
2539	0.87
2548	0.8694
2557	0.8701
2566	0.8707
2575	0.8665
2584	0.8614
2593	0.8555
2602	0.8479
2611	0.8404
2620	0.8318
2629	0.8227
2638	0.8109
2647	0.7938
2656	0.7719
2665	0.7459
2674	0.7193
2683	0.7183
2692	0.7256
2701	0.758
2710	0.7809
2719	0.7893
2728	0.7925
2737	0.7913
2746	0.7831
2755	0.7686
2764	0.7488
2773	0.7229
2782	0.6682
2791	0.6272
2800	0.5692
2809	0.3626
2818	0.2746
2827	0.1431
2836	0.0345
2845	0.0136
2854	0.0107
2863	0.0109
2872	0.0132
2881	0.0204
2890	0.0282
2899	0.0362
2908	0.0435
2917	0.0459
2926	0.0436
2935	0.0327
2944	0.0182
2953	0.0079
2962	0.0039
2971	0.004
2980	0.0059
2989	0.0096
2998	0.0213
3007	0.143
3016	0.3234
3025	0.4838
3034	0.6755
3043	0.7467
3052	0.7936
3061	0.822
3070	0.8382
3079	0.8481
3088	0.855
3097	0.8592
3106	0.8613
3115	0.8617
3124	0.8622
3133	0.8644
3142	0.8722
3151	0.8775
3160	0.8783
3169	0.8733
3178	0.8724
3187	0.8735
3196	0.8749
3205	0.8751
3214	0.8757
3223	0.8766
3232	0.877
3241	0.8778
3250	0.8781
3259	0.8787
3268	0.8809
3277	0.8818
3286	0.8829
3295	0.8849
3304	0.8857
3313	0.8849
3322	0.8843
3331	0.8849
3340	0.8865
3349	0.8842
3358	0.8821
3367	0.8816
3376	0.8816
3385	0.8823
3394	0.8836
3403	0.8852
3412	0.8871
3421	0.8886
3430	0.89
3439	0.8909
3448	0.8914
3457	0.8919
3466	0.8924
3475	0.8927
3484	0.8932
3493	0.8927
3502	0.8923
3511	0.8918
3520	0.8911
3529	0.8902
3538	0.8894
3547	0.8891
3556	0.8888
3565	0.889
3574	0.8894
3583	0.8885
3592	0.8865
3601	0.8855
3610	0.886
3619	0.8868
3628	0.8877
3637	0.8875
3646	0.8873
3655	0.8869
3664	0.8832
3673	0.8817
3682	0.8821
3691	0.8821
3700	0.8819
3709	0.8811
3718	0.8802
3727	0.8793
3736	0.878
3745	0.8752
3754	0.8712
3763	0.868
3772	0.866
3781	0.8653
3790	0.8695
