Infrared Spectrum: 1-Propanol, 2-amino-2-methyl-
Formula: C 4 H 11 N O
CAS: 124-68-5
State: gas
Origin: Sadtler Research Labs Under US-EPA Contract
1/CM	ABSORBANCE
450	0.0576813
462	0.0400956
474	0.0516631
486	0.0547895
498	0.0471299
510	0.0269649
522	0.0257143
534	0.0458012
546	0.0647157
558	0.0726097
570	0.0653409
582	0.0527573
594	0.0428311
606	0.0392358
618	0.0380634
630	0.0400956
642	0.0334521
654	0.0314981
666	0.0348589
678	0.0410335
690	0.0458012
702	0.0651064
714	0.0689362
726	0.0976206
738	0.137247
750	0.176561
762	0.175076
774	0.18383
786	0.222206
798	0.270821
810	0.310135
822	0.286609
834	0.224942
846	0.156162
858	0.108328
870	0.0837864
882	0.0770648
894	0.0765177
906	0.0642467
918	0.0536952
930	0.0486149
942	0.0425185
954	0.0375163
966	0.041268
978	0.0563526
990	0.0754234
1002	0.0958229
1014	0.139045
1026	0.267069
1038	0.471533
1050	0.622224
1062	0.570561
1074	0.358984
1086	0.167964
1098	0.0707339
1110	0.0445506
1122	0.0447851
1134	0.0564308
1146	0.0810509
1158	0.108719
1170	0.128024
1182	0.135919
1194	0.137872
1206	0.130526
1218	0.114503
1230	0.106453
1242	0.11677
1254	0.121459
1266	0.105749
1278	0.0819106
1290	0.0723752
1302	0.0699523
1314	0.069796
1326	0.0695615
1338	0.0751108
1350	0.103795
1362	0.154599
1374	0.213218
1386	0.208216
1398	0.17023
1410	0.142562
1422	0.0969172
1434	0.065888
1446	0.0743292
1458	0.103951
1470	0.124898
1482	0.106531
1494	0.0675294
1506	0.0330613
1518	0.0247764
1530	0.0264959
1542	0.0273556
1554	0.0297786
1566	0.035406
1578	0.0451759
1590	0.0604169
1602	0.0817543
1614	0.100903
1626	0.098793
1638	0.0756579
1650	0.0479115
1662	0.0266522
1674	0.0159444
1686	0.00976987
1698	0.00664351
1710	0.00500218
1722	0.00429874
1734	0.00422059
1746	0.00398611
1758	0.00226661
1770	0.0013287
1782	0.000547113
1794	0.00117238
1806	0.00140686
1818	0.000859749
1830	0.000547113
1842	0.000390795
1854	0.000156318
1866	0.000234477
1878	0.000234477
1890	0.000390795
1902	0.000468954
1914	0.000703431
1926	0.000625272
1938	0.00125054
1950	0.00164134
1962	0.00179766
1974	0.00203213
1986	0.00242293
1998	0.00234477
2010	0.00250109
2022	0.00273556
2034	0.00367347
2046	0.00453322
2058	0.00586192
2070	0.00672167
2082	0.00765958
2094	0.00805038
2106	0.0078159
2118	0.0074251
2130	0.00664351
2142	0.00570561
2154	0.00461138
2166	0.00422059
2178	0.00390795
2190	0.00414243
2202	0.00406427
2214	0.00414243
2226	0.00429874
2238	0.0043769
2250	0.0047677
2262	0.0047677
2274	0.00484586
2286	0.00547113
2298	0.00672167
2310	0.00687799
2322	0.00461138
2334	0.00414243
2346	0.00562745
2358	0.00500218
2370	0.00515849
2382	0.00672167
2394	0.00594008
2406	0.00594008
2418	0.00554929
2430	0.00578377
2442	0.00531481
2454	0.00570561
2466	0.00547113
2478	0.00570561
2490	0.00554929
2502	0.00539297
2514	0.00562745
2526	0.00586192
2538	0.00586192
2550	0.00586192
2562	0.00625272
2574	0.00640904
2586	0.00679983
2598	0.00758142
2610	0.00820669
2622	0.00945724
2634	0.0102388
2646	0.0110986
2658	0.0121146
2670	0.0132089
2682	0.0147721
2694	0.0166479
2706	0.0194616
2718	0.0241511
2730	0.0279809
2742	0.0294659
2754	0.0301694
2766	0.030482
2778	0.0350152
2790	0.042284
2802	0.0522884
2814	0.0651064
2826	0.0886323
2838	0.133417
2850	0.200087
2862	0.276995
2874	0.334286
2886	0.335224
2898	0.320843
2910	0.340461
2922	0.400878
2934	0.460669
2946	0.518585
2958	0.653878
2970	0.78159
2982	0.580565
2994	0.269883
3006	0.0856623
3018	0.0257925
3030	0.0145376
3042	0.0121928
3054	0.012271
3066	0.0123491
3078	0.0132089
3090	0.0128181
3102	0.0120365
3114	0.0114112
3126	0.0102388
3138	0.0100044
3150	0.0103951
3162	0.0109423
3174	0.0125054
3186	0.0134433
3198	0.0128181
3210	0.0117238
3222	0.00961356
3234	0.00773774
3246	0.00672167
3258	0.00531481
3270	0.00461138
3282	0.0043769
3294	0.00500218
3306	0.00664351
3318	0.00992619
3330	0.0136778
3342	0.0125054
3354	0.00812854
3366	0.00672167
3378	0.00922276
3390	0.0146157
3402	0.0174295
3414	0.0146157
3426	0.0102388
3438	0.0074251
3450	0.00625272
3462	0.00547113
3474	0.0047677
3486	0.00562745
3498	0.00844117
3510	0.0128181
3522	0.0239167
3534	0.05307
3546	0.0808164
3558	0.0759705
3570	0.0583848
3582	0.0392358
3594	0.027043
3606	0.0207121
3618	0.0175858
3630	0.0182892
3642	0.0218845
3654	0.0371255
3666	0.0606514
3678	0.0684673
3690	0.0543205
3702	0.030482
3714	0.0169605
3726	0.0100825
3738	0.00820669
3750	0.0060964
3762	0.00508034
3774	0.00461138
3786	0.00515849
3798	0.00570561
3810	0.00750326
3822	0.00562745
3834	0.00586192
3846	0.00679983
3858	0.00679983
3870	0.00719063
3882	0.00750326
3894	0.00500218
3906	0.00586192
3918	0.00695615
3930	0.00656536
3942	0.00547113
3954	0.00523665
3966	0.0074251
