Infrared Spectrum: Propyne, 3-fluoro-
Formula: C3 H3 F
CAS: 2805-22-3
State: GAS (100 mmHg, N2 ADDED, TOTAL PRESSURE 600 mmHg)
Class: COBLENTZ
Instrument: DOW KBr FOREPRISM-GRATING
Instrument parameters: GRATING CHANGED AT 5.0, 7.5, 15.0 MICRON
Sampling: TRANSMISSION
Path length: 5 CM
Resolution: 2
Origin: DOW CHEMICAL COMPANY
1/CM	TRANSMITTANCE
456	0.8685
465	0.8763
474	0.8836
483	0.8882
492	0.8825
501	0.8663
510	0.8363
519	0.7901
528	0.7081
537	0.7174
546	0.6949
555	0.7007
564	0.7863
573	0.8056
582	0.8032
591	0.76
600	0.6859
609	0.5567
618	0.4345
627	0.2518
636	0.1996
645	0.0637
654	0.084
663	0.1841
672	0.1057
681	0.4146
690	0.3738
699	0.5235
708	0.7139
717	0.7653
726	0.7721
735	0.7974
744	0.8011
753	0.8273
762	0.8445
771	0.8457
780	0.8453
789	0.8456
798	0.8444
807	0.8431
816	0.8426
825	0.8421
834	0.8408
843	0.8385
852	0.8353
861	0.8245
870	0.8054
879	0.8005
888	0.7764
897	0.7243
906	0.6481
915	0.5261
924	0.4369
933	0.3975
942	0.3383
951	0.4017
960	0.5605
969	0.6326
978	0.659
987	0.5925
996	0.4214
1005	0.279
1014	0.1189
1023	0.0059
1032	0.0054
1041	0.0109
1050	0.0057
1059	0.152
1068	0.3142
1077	0.4676
1086	0.4627
1095	0.5961
1104	0.7837
1113	0.8173
1122	0.8252
1131	0.8284
1140	0.831
1149	0.8376
1158	0.8436
1167	0.849
1176	0.845
1185	0.8507
1194	0.8466
1203	0.8331
1212	0.8073
1221	0.7632
1230	0.7026
1239	0.6197
1248	0.4833
1257	0.5545
1266	0.5071
1275	0.6176
1284	0.7516
1293	0.7349
1302	0.658
1311	0.6331
1320	0.6358
1329	0.7072
1338	0.7862
1347	0.7577
1356	0.5136
1365	0.178
1374	0.2219
1383	0.2033
1392	0.3104
1401	0.7717
1410	0.8152
1419	0.8163
1428	0.8091
1437	0.7953
1446	0.7747
1455	0.7672
1464	0.786
1473	0.7525
1482	0.7746
1491	0.7977
1500	0.8149
1509	0.8258
1518	0.8332
1527	0.8347
1536	0.8331
1545	0.8275
1554	0.8165
1563	0.8107
1572	0.8209
1581	0.8146
1590	0.8212
1599	0.8234
1608	0.8237
1617	0.8239
1626	0.8248
1635	0.826
1644	0.8276
1653	0.8285
1662	0.829
1671	0.8296
1680	0.8304
1689	0.831
1698	0.8309
1707	0.8252
1716	0.8168
1725	0.8126
1734	0.8043
1743	0.8088
1752	0.8146
1761	0.8207
1770	0.8279
1779	0.8303
1788	0.831
1797	0.8308
1806	0.8309
1815	0.8314
1824	0.8311
1833	0.8303
1842	0.8296
1851	0.8304
1860	0.8303
1869	0.8308
1878	0.8319
1887	0.8318
1896	0.8316
1905	0.83
1914	0.8283
1923	0.8267
1932	0.8245
1941	0.8219
1950	0.8185
1959	0.8148
1968	0.8153
1977	0.8155
1986	0.8179
1995	0.8208
2004	0.8295
2013	0.8213
2022	0.8202
2031	0.8168
2040	0.808
2049	0.794
2058	0.7694
2067	0.7824
2076	0.7849
2085	0.8038
2094	0.8108
2103	0.8026
2112	0.7838
2121	0.7052
2130	0.6234
2139	0.5898
2148	0.6532
2157	0.6332
2166	0.8257
2175	0.8327
2184	0.8329
2193	0.835
2202	0.8365
2211	0.8362
2220	0.8354
2229	0.8345
2238	0.8311
2247	0.8281
2256	0.8281
2265	0.8286
2274	0.8298
2283	0.8319
2292	0.833
2301	0.8313
2310	0.829
2319	0.8272
2328	0.8309
2337	0.8321
2346	0.8321
2355	0.8324
2364	0.8325
2373	0.8323
2382	0.8307
2391	0.8283
2400	0.827
2409	0.8276
2418	0.8306
2427	0.8332
2436	0.8346
2445	0.8353
2454	0.8342
2463	0.8337
2472	0.8341
2481	0.8351
2490	0.8364
2499	0.8381
2508	0.8399
2517	0.8412
2526	0.842
2535	0.8422
2544	0.8425
2553	0.8422
2562	0.842
2571	0.8413
2580	0.8404
2589	0.8394
2598	0.8385
2607	0.8376
2616	0.8368
2625	0.8361
2634	0.8354
2643	0.8347
2652	0.8341
2661	0.8333
2670	0.8323
2679	0.8313
2688	0.8303
2697	0.829
2706	0.8255
2715	0.82
2724	0.8169
2733	0.8162
2742	0.8168
2751	0.826
2760	0.8327
2769	0.8349
2778	0.8356
2787	0.8359
2796	0.8361
2805	0.8285
2814	0.8178
2823	0.8146
2832	0.8222
2841	0.8192
2850	0.804
2859	0.7851
2868	0.7619
2877	0.7033
2886	0.6055
2895	0.652
2904	0.5964
2913	0.5872
2922	0.5763
2931	0.5073
2940	0.4246
2949	0.3954
2958	0.4459
2967	0.24
2976	0.4013
2985	0.5253
2994	0.5943
3003	0.7165
3012	0.7762
3021	0.8184
3030	0.8313
3039	0.8358
3048	0.8378
3057	0.8386
3066	0.8387
3075	0.8388
3084	0.8389
3093	0.839
3102	0.8392
3111	0.8394
3120	0.8391
3129	0.8388
3138	0.8382
3147	0.8375
3156	0.8377
3165	0.8379
3174	0.8384
3183	0.8388
3192	0.8409
3201	0.8431
3210	0.8449
3219	0.8454
3228	0.8439
3237	0.8413
3246	0.8356
3255	0.828
3264	0.8157
3273	0.7937
3282	0.7619
3291	0.6895
3300	0.5681
3309	0.2684
3318	0.0804
3327	0.1153
3336	0.0533
3345	0.1831
3354	0.785
3363	0.8059
3372	0.821
3381	0.8326
3390	0.8412
3399	0.8463
3408	0.8486
3417	0.85
3426	0.8506
3435	0.8511
3444	0.8515
3453	0.8514
3462	0.8512
3471	0.8509
3480	0.8507
3489	0.8508
3498	0.8509
3507	0.8513
3516	0.8517
3525	0.852
3534	0.8523
3543	0.8531
3552	0.8541
3561	0.8545
3570	0.8548
3579	0.855
3588	0.8544
3597	0.8536
3606	0.8526
3615	0.851
3624	0.8496
3633	0.8492
3642	0.8557
3651	0.8581
3660	0.8554
3669	0.8517
3678	0.8511
3687	0.8534
3696	0.8558
3705	0.8581
3714	0.8589
3723	0.859
3732	0.8585
3741	0.8577
3750	0.8566
3759	0.8556
3768	0.8555
3777	0.8553
3786	0.8552
