Infrared Spectrum: Ethane, 1-chloro-1,1-difluoro-
Formula: C2 H3 Cl F2
CAS: 75-68-3
State: GAS (50 mmHg, N2 ADDED, TOTAL PRESSURE 600 mmHg)
Class: COBLENTZ
Instrument: DOW KBr FOREPRISM-GRATING
Instrument parameters: GRATING CHANGED AT 5.0, 7.5, 15.0 MICRON
Sampling: TRANSMISSION
Path length: 5 CM
Resolution: 2
Origin: DOW CHEMICAL COMPANY
1/CM	TRANSMITTANCE
452	0.8221
461	0.8269
470	0.8352
479	0.8513
488	0.8629
497	0.8708
506	0.8764
515	0.8752
524	0.8547
533	0.8099
542	0.7825
551	0.7717
560	0.7975
569	0.8612
578	0.8739
587	0.8778
596	0.8775
605	0.8743
614	0.8699
623	0.8712
632	0.8746
641	0.879
650	0.871
659	0.8241
668	0.6583
677	0.6562
686	0.6627
695	0.6854
704	0.848
713	0.8544
722	0.8526
731	0.8489
740	0.8457
749	0.8427
758	0.8405
767	0.8376
776	0.8373
785	0.8365
794	0.8332
803	0.8325
812	0.8332
821	0.8341
830	0.8308
839	0.8277
848	0.8236
857	0.8214
866	0.8179
875	0.7951
884	0.6044
893	0.3549
902	0.2915
911	0.2946
920	0.7261
929	0.8256
938	0.8027
947	0.6558
956	0.5806
965	0.3635
974	0.5997
983	0.7087
992	0.8197
1001	0.8281
1010	0.8262
1019	0.8338
1028	0.8393
1037	0.8426
1046	0.8428
1055	0.8385
1064	0.8294
1073	0.812
1082	0.7628
1091	0.6761
1100	0.5895
1109	0.5183
1118	0.3433
1127	0.2648
1136	0.2872
1145	0.3175
1154	0.7426
1163	0.7159
1172	0.5021
1181	0.2962
1190	0.0821
1199	0.1623
1208	0.2777
1217	0.3936
1226	0.4591
1235	0.5172
1244	0.6766
1253	0.7953
1262	0.8392
1271	0.8439
1280	0.8412
1289	0.8381
1298	0.8365
1307	0.8367
1316	0.8376
1325	0.8354
1334	0.8324
1343	0.832
1352	0.8318
1361	0.8281
1370	0.7749
1379	0.683
1388	0.646
1397	0.4814
1406	0.6731
1415	0.8107
1424	0.8222
1433	0.8064
1442	0.7928
1451	0.8111
1460	0.8183
1469	0.8303
1478	0.8315
1487	0.8335
1496	0.8358
1505	0.8395
1514	0.834
1523	0.8345
1532	0.8356
1541	0.8397
1550	0.8341
1559	0.8328
1568	0.8256
1577	0.8238
1586	0.8203
1595	0.8242
1604	0.829
1613	0.8314
1622	0.8319
1631	0.833
1640	0.8341
1649	0.8353
1658	0.8336
1667	0.8355
1676	0.8384
1685	0.8393
1694	0.842
1703	0.8396
1712	0.8439
1721	0.8387
1730	0.8384
1739	0.8383
1748	0.8377
1757	0.8351
1766	0.8352
1775	0.8341
1784	0.8354
1793	0.8374
1802	0.8356
1811	0.834
1820	0.8342
1829	0.8352
1838	0.8342
1847	0.8326
1856	0.83
1865	0.8289
1874	0.8291
1883	0.831
1892	0.8337
1901	0.8347
1910	0.8342
1919	0.83
1928	0.828
1937	0.8304
1946	0.8351
1955	0.8366
1964	0.8345
1973	0.8348
1982	0.8364
1991	0.8372
2000	0.8372
2009	0.8387
2018	0.8372
2027	0.8369
2036	0.837
2045	0.8371
2054	0.8363
2063	0.8348
2072	0.8328
2081	0.8307
2090	0.8264
2099	0.8225
2108	0.8241
2117	0.8261
2126	0.8277
2135	0.829
2144	0.8306
2153	0.8321
2162	0.8334
2171	0.8343
2180	0.8352
2189	0.8358
2198	0.8364
2207	0.837
2216	0.8376
2225	0.8379
2234	0.8382
2243	0.838
2252	0.8377
2261	0.8374
2270	0.8369
2279	0.8362
2288	0.8355
2297	0.8352
2306	0.8349
2315	0.8394
2324	0.8458
2333	0.8475
2342	0.8455
2351	0.8429
2360	0.8401
2369	0.8376
2378	0.836
2387	0.8356
2396	0.8363
2405	0.837
2414	0.8375
2423	0.838
2432	0.8386
2441	0.8391
2450	0.8397
2459	0.8403
2468	0.8409
2477	0.8415
2486	0.8421
2495	0.8427
2504	0.8433
2513	0.8437
2522	0.8443
2531	0.8439
2540	0.8435
2549	0.843
2558	0.8421
2567	0.8412
2576	0.8402
2585	0.8387
2594	0.8043
2603	0.8345
2612	0.8383
2621	0.8389
2630	0.839
2639	0.8399
2648	0.8407
2657	0.8412
2666	0.8417
2675	0.8424
2684	0.8431
2693	0.8432
2702	0.8431
2711	0.8434
2720	0.8442
2729	0.8454
2738	0.8457
2747	0.8444
2756	0.8416
2765	0.8402
2774	0.8399
2783	0.8394
2792	0.8391
2801	0.839
2810	0.8389
2819	0.839
2828	0.8391
2837	0.8394
2846	0.8413
2855	0.842
2864	0.8413
2873	0.8401
2882	0.8397
2891	0.8396
2900	0.8397
2909	0.8395
2918	0.8391
2927	0.8385
2936	0.8368
2945	0.8332
2954	0.8277
2963	0.8272
2972	0.8299
2981	0.8345
2990	0.8346
2999	0.8313
3008	0.8161
3017	0.7896
3026	0.7945
3035	0.8148
3044	0.8319
3053	0.8393
3062	0.8412
3071	0.8418
3080	0.8424
3089	0.8432
3098	0.8441
3107	0.8452
3116	0.8465
3125	0.8473
3134	0.8476
3143	0.8482
3152	0.8491
3161	0.8497
3170	0.85
3179	0.8502
3188	0.8504
3197	0.8501
3206	0.8498
3215	0.8495
3224	0.8495
3233	0.8494
3242	0.8494
3251	0.8498
3260	0.8499
3269	0.8488
3278	0.8472
3287	0.8464
3296	0.8456
3305	0.8448
3314	0.8444
3323	0.8442
3332	0.8448
3341	0.8455
3350	0.8462
3359	0.8472
3368	0.8481
3377	0.8489
3386	0.8496
3395	0.8502
3404	0.8503
3413	0.8503
3422	0.8503
3431	0.8502
3440	0.8504
3449	0.8513
3458	0.8525
3467	0.8541
3476	0.8543
3485	0.8545
3494	0.8548
3503	0.855
3512	0.8552
3521	0.8554
3530	0.8556
3539	0.8558
3548	0.856
3557	0.8561
3566	0.8561
3575	0.856
3584	0.856
3593	0.8564
3602	0.857
3611	0.8575
3620	0.8582
3629	0.8582
3638	0.856
3647	0.857
3656	0.8583
3665	0.8538
3674	0.8507
3683	0.8517
3692	0.8551
3701	0.8587
3710	0.8609
3719	0.8611
3728	0.8588
3737	0.8546
3746	0.8521
3755	0.8515
3764	0.8523
3773	0.8537
3782	0.8551
3791	0.8563
