Infrared Spectrum: Ethane, 1-chloro-1,1-difluoro-
Formula: C 2 H 3 Cl F 2
CAS: 75-68-3
State: gas
Origin: Sadtler Research Labs Under US-EPA Contract
1/CM	ABSORBANCE
450	0.0169983
462	0.00699296
474	0.00311994
486	0.0020441
498	0.00559437
510	0.00505645
522	0.0231306
534	0.0423881
546	0.0754164
558	0.0493811
570	0.0152769
582	0.00667021
594	0.00763846
606	0.00344269
618	0.00914464
630	0.00656262
642	0.00731571
654	0.0436791
666	0.114469
678	0.16923
690	0.151693
702	0.0669172
714	0.0115115
726	0.00591712
738	0.0101129
750	0.00623987
762	0.00677779
774	0.00688538
786	0.0047337
798	0.00570195
810	0.0047337
822	0.0060247
834	0.00882189
846	0.0128025
858	0.01603
870	0.0258202
882	0.144055
894	0.343731
906	0.417641
918	0.334801
930	0.0398061
942	0.0686386
954	0.159332
966	0.28456
978	0.145346
990	0.0699296
1002	0.0239912
1014	0.0222699
1026	0.0193651
1038	0.0102205
1050	0.00763846
1062	0.010866
1074	0.0244216
1086	0.0803652
1098	0.171489
1110	0.276814
1122	0.458308
1134	0.684449
1146	0.593433
1158	0.134157
1170	0.23959
1182	0.514467
1194	0.980413
1206	0.825384
1218	0.356641
1230	0.26229
1242	0.117051
1254	0.0465839
1266	0.0119418
1278	0.00946739
1290	0.00914464
1302	0.00720813
1314	0.00710054
1326	0.0101129
1338	0.0120494
1350	0.0114039
1362	0.0166755
1374	0.0613229
1386	0.103711
1398	0.161053
1410	0.0900478
1422	0.0202258
1434	0.0195803
1446	0.0275415
1458	0.0151693
1470	0.00828397
1482	0.00365786
1494	0.00322752
1506	0.00376544
1518	0.00311994
1530	0.00344269
1542	0.00322752
1554	0.00365786
1566	0.00570195
1578	0.00667021
1590	0.0053792
1602	0.00419578
1614	0.00290477
1626	0.0026896
1638	0.0026896
1650	0.00290477
1662	0.00290477
1674	0.00322752
1686	0.00311994
1698	0.00279718
1710	0.00247443
1722	0.00225926
1734	0.00193651
1746	0.00193651
1758	0.00193651
1770	0.00182893
1782	0.0020441
1794	0.00236685
1806	0.00301235
1818	0.00344269
1830	0.00311994
1842	0.0033351
1854	0.00484128
1866	0.00623987
1878	0.00451853
1890	0.0033351
1902	0.0026896
1914	0.00279718
1926	0.00398061
1938	0.00430336
1950	0.00301235
1962	0.0020441
1974	0.00172134
1986	0.00172134
1998	0.00182893
2010	0.00161376
2022	0.00150618
2034	0.00193651
2046	0.0020441
2058	0.0026896
2070	0.00365786
2082	0.00570195
2094	0.00849914
2106	0.00849914
2118	0.00591712
2130	0.00527162
2142	0.00462611
2154	0.00408819
2166	0.00344269
2178	0.00290477
2190	0.00290477
2202	0.00236685
2214	0.00172134
2226	0.00129101
2238	0.00129101
2250	0.00118342
2262	0.00150618
2274	0.00193651
2286	0.00236685
2298	0.00344269
2310	0.00290477
2322	0.00290477
2334	0.00301235
2346	0.00311994
2358	0.00387302
2370	0.00344269
2382	0.0020441
2394	0.00193651
2406	0.00182893
2418	0.00150618
2430	0.000968256
2442	0.000430336
2454	0.000430336
2466	0.000215168
2478	0.00053792
2490	0.00053792
2502	0.000968256
2514	0.000645504
2526	0.00053792
2538	0.00107584
2550	0.000645504
2562	0.000645504
2574	0.00129101
2586	0.00182893
2598	0.00258202
2610	0.00247443
2622	0.00247443
2634	0.00193651
2646	0.00129101
2658	0.000968256
2670	0.000860672
2682	0.000430336
2694	0.000645504
2706	0.000860672
2718	0.000860672
2730	0.00107584
2742	0.00053792
2754	0.000322752
2766	0.00107584
2778	0.00053792
2790	0.000645504
2802	0.00053792
2814	0.000968256
2826	0.00161376
2838	0.0020441
2850	0.0020441
2862	0.00193651
2874	0.00172134
2886	0.0020441
2898	0.00172134
2910	0.00139859
2922	0.00118342
2934	0.00172134
2946	0.0053792
2958	0.00957498
2970	0.00710054
2982	0.00376544
2994	0.00247443
3006	0.0118342
3018	0.0185044
3030	0.0208713
3042	0.0137708
3054	0.00591712
3066	0.00172134
3078	0.00172134
3090	0.00107584
3102	0.00139859
3114	0.00139859
3126	0.00053792
3138	0.00118342
3150	0.00161376
3162	0.00107584
3174	0.00129101
3186	0.00129101
3198	0.00129101
3210	0.00150618
3222	0.00172134
3234	0.00129101
3246	0.00225926
3258	0.00193651
3270	0.00225926
3282	0.00161376
3294	0.00129101
3306	0.00161376
3318	0.00172134
3330	0.00161376
3342	0.00225926
3354	0.00129101
3366	0.00182893
3378	0.00118342
3390	0.00139859
3402	0.00107584
3414	0.00139859
3426	0.00139859
3438	0.00129101
3450	0.00161376
3462	0.00129101
3474	0.00139859
3486	0.00139859
3498	0.000968256
3510	0.00139859
3522	0.000860672
3534	0.00053792
3546	0.00129101
3558	0.000968256
3570	0.00161376
3582	0.000430336
3594	0.00129101
3606	0.00279718
3618	0.00129101
3630	0.00053792
3642	0.00182893
3654	0.00129101
3666	0.00139859
3678	0.00150618
3690	0.0020441
3702	0.00172134
3714	0.00118342
3726	0.000968256
3738	0.00236685
3750	0.000322752
3762	0.00182893
3774	0.00161376
3786	0.000645504
3798	0.0020441
3810	0.00129101
3822	0.00161376
3834	0.00182893
3846	0.00258202
3858	0.00139859
3870	0.000968256
3882	0.00150618
3894	0.00139859
3906	0.00182893
3918	0.00118342
3930	0.00161376
3942	0.0020441
3954	0.000107584
3966	0.00139859
