Infrared Spectrum: Hydroxylamine, N,N-diethyl-
Formula: C4 H11 N O
CAS: 3710-84-7
Class: COBLENTZ III
Instrument: CARY 90 (GRATING)
Instrument parameters: GRATING CHANGES: 3000, 2000, 1200 CM^-^1
Sampling: TRANSMISSION
Path length: CAPILLARY
Resolution: LIQUID (NEAT)
Origin: WESTERN REGIONAL RES. USDA
1/CM	TRANSMITTANCE
463	0.7165
472	0.6965
481	0.647
490	0.63
499	0.7558
508	0.6624
517	0.7282
526	0.8001
535	0.8349
544	0.833
553	0.8192
562	0.8016
571	0.7824
580	0.7608
589	0.7418
598	0.7471
607	0.7689
616	0.7709
625	0.7738
634	0.7758
643	0.7787
652	0.7813
661	0.78
670	0.7779
679	0.7758
688	0.7719
697	0.7681
706	0.7649
715	0.7611
724	0.7543
733	0.7422
742	0.7032
751	0.5578
760	0.3954
769	0.5841
778	0.7059
787	0.7448
796	0.7677
805	0.7764
814	0.7784
823	0.7641
832	0.7819
841	0.8354
850	0.8455
859	0.85
868	0.8547
877	0.8555
886	0.8416
895	0.7157
904	0.4936
913	0.4133
922	0.6524
931	0.7314
940	0.8693
949	0.8852
958	0.8884
967	0.8871
976	0.8879
985	0.8852
994	0.879
1003	0.8582
1012	0.839
1021	0.787
1030	0.6609
1039	0.6423
1048	0.458
1057	0.5835
1066	0.7412
1075	0.6735
1084	0.8063
1093	0.8478
1102	0.8019
1111	0.7954
1120	0.7747
1129	0.529
1138	0.5067
1147	0.7601
1156	0.6816
1165	0.7254
1174	0.6374
1183	0.7618
1192	0.8373
1201	0.8552
1210	0.857
1219	0.8652
1228	0.8752
1237	0.8667
1246	0.8486
1255	0.8396
1264	0.7318
1273	0.7458
1282	0.7797
1291	0.737
1300	0.7389
1309	0.7274
1318	0.7667
1327	0.7584
1336	0.6737
1345	0.4909
1354	0.6092
1363	0.5496
1372	0.339
1381	0.3475
1390	0.598
1399	0.6379
1408	0.6408
1417	0.6273
1426	0.5999
1435	0.5016
1444	0.3643
1453	0.3476
1462	0.3582
1471	0.4365
1480	0.5821
1489	0.6598
1498	0.7086
1507	0.7479
1516	0.7782
1525	0.8036
1534	0.817
1543	0.8296
1552	0.8368
1561	0.8432
1570	0.849
1579	0.8542
1588	0.8577
1597	0.8609
1606	0.8661
1615	0.8699
1624	0.8707
1633	0.8699
1642	0.8699
1651	0.8701
1660	0.8716
1669	0.8734
1678	0.8752
1687	0.8775
1696	0.8802
1705	0.883
1714	0.8852
1723	0.8873
1732	0.8893
1741	0.8908
1750	0.8914
1759	0.8919
1768	0.8925
1777	0.893
1786	0.8936
1795	0.8941
1804	0.8939
1813	0.8935
1822	0.8931
1831	0.8927
1840	0.8924
1849	0.8921
1858	0.8904
1867	0.8894
1876	0.8894
1885	0.8896
1894	0.8909
1903	0.8921
1912	0.893
1921	0.8938
1930	0.893
1939	0.8902
1948	0.8831
1957	0.8792
1966	0.8816
1975	0.8909
1984	0.891
1993	0.8871
2002	0.8891
2011	0.8915
2020	0.893
2029	0.8938
2038	0.8945
2047	0.8951
2056	0.8958
2065	0.8967
2074	0.8975
2083	0.8984
2092	0.8993
2101	0.8998
2110	0.9003
2119	0.9008
2128	0.9013
2137	0.9017
2146	0.9016
2155	0.901
2164	0.9006
2173	0.9
2182	0.8996
2191	0.899
2200	0.8988
2209	0.8987
2218	0.8986
2227	0.8985
2236	0.8983
2245	0.8979
2254	0.8969
2263	0.8959
2272	0.8949
2281	0.8939
2290	0.893
2299	0.8919
2308	0.8905
2317	0.889
2326	0.8876
2335	0.8861
2344	0.8847
2353	0.8832
2362	0.8819
2371	0.8807
2380	0.8796
2389	0.8784
2398	0.8773
2407	0.8761
2416	0.8752
2425	0.8744
2434	0.8736
2443	0.8728
2452	0.8719
2461	0.8711
2470	0.8703
2479	0.8649
2488	0.8581
2497	0.8554
2506	0.8531
2515	0.8512
2524	0.8445
2533	0.8375
2542	0.8299
2551	0.8189
2560	0.8076
2569	0.7967
2578	0.7884
2587	0.7799
2596	0.7718
2605	0.764
2614	0.7563
2623	0.7488
2632	0.7421
2641	0.7333
2650	0.7227
2659	0.7113
2668	0.6981
2677	0.6808
2686	0.6621
2695	0.649
2704	0.6366
2713	0.6223
2722	0.6062
2731	0.5898
2740	0.5723
2749	0.5532
2758	0.5272
2767	0.5047
2776	0.4866
2785	0.4707
2794	0.4367
2803	0.3937
2812	0.3558
2821	0.3119
2830	0.2517
2839	0.1725
2848	0.1339
2857	0.1572
2866	0.2121
2875	0.1852
2884	0.1465
2893	0.1868
2902	0.2293
2911	0.2529
2920	0.2366
2929	0.2299
2938	0.1629
2947	0.1231
2956	0.2041
2965	0.2628
2974	0.1283
2983	0.0723
2992	0.1108
3001	0.2715
3010	0.4371
3019	0.4818
3028	0.5068
3037	0.516
3046	0.5055
3055	0.4886
3064	0.4739
3073	0.4601
3082	0.4466
3091	0.4334
3100	0.4184
3109	0.4017
3118	0.3864
3127	0.3721
3136	0.3582
3145	0.3451
3154	0.3316
3163	0.3158
3172	0.3
3181	0.2849
3190	0.277
3199	0.2705
3208	0.2662
3217	0.2627
3226	0.2598
3235	0.2592
3244	0.2599
3253	0.2638
3262	0.2677
3271	0.2712
3280	0.2748
3289	0.2802
3298	0.2915
3307	0.3013
3316	0.3082
3325	0.3129
3334	0.3151
3343	0.3171
3352	0.32
3361	0.3236
3370	0.3325
3379	0.3433
3388	0.3567
3397	0.3706
3406	0.3864
3415	0.4029
3424	0.418
3433	0.432
3442	0.4435
3451	0.4551
3460	0.4734
3469	0.4976
3478	0.5236
3487	0.5589
3496	0.5897
3505	0.6162
3514	0.6451
3523	0.6744
3532	0.7001
3541	0.7254
3550	0.7552
3559	0.7808
3568	0.7964
3577	0.8135
3586	0.8305
3595	0.8413
3604	0.8513
3613	0.8574
3622	0.8636
3631	0.87
3640	0.8765
3649	0.882
3658	0.8867
3667	0.8907
3676	0.8925
3685	0.8943
3694	0.896
3703	0.8976
3712	0.8992
3721	0.9008
3730	0.902
3739	0.9031
3748	0.9042
3757	0.9042
3766	0.9042
3775	0.9041
3784	0.9035
3793	0.904
3802	0.904
3811	0.9054
3820	0.9072
3829	0.9093
3838	0.9114
3847	0.912
3856	0.9122
3865	0.9105
3874	0.9086
3883	0.906
3892	0.9033
3901	0.8997
3910	0.8959
3919	0.8915
3928	0.8871
3937	0.8827
3946	0.879
3955	0.8756
3964	0.8731
3973	0.8707
3982	0.8708
3991	0.8735
4000	0.8765
