Infrared Spectrum: 2-Methyl-1-butanethiol
Formula: C 5 H 12 S
CAS: 1878-18-8
State: gas
Instrument: HP-GC/MS/IRD
Origin: NIST Mass Spectrometry Data Center
1/CM	ABSORBANCE
550	5.04e-05
562	7e-05
574	0.0001736
586	0.0001596
598	5.6e-06
610	0.0001148
622	9.52e-05
634	0.0001372
646	0.000196
658	0.0003052
670	0.0003332
682	0.0003444
694	0.0004928
706	0.0006608
718	0.0009016
730	0.0006916
742	0.0006104
754	0.0006804
766	0.0009352
778	0.0010108
790	0.00077
802	0.0004984
814	0.000392
826	0.000364
838	0.0002884
850	0.0002716
862	0.00028
874	0.000308
886	0.0003696
898	0.0004648
910	0.0006132
922	0.0006188
934	0.0006412
946	0.0006216
958	0.0007644
970	0.0009856
982	0.0009996
994	0.000868
1006	0.0008204
1018	0.0007784
1030	0.000574
1042	0.000364
1054	0.0002072
1066	0.000308
1078	0.000392
1090	0.000644
1102	0.0006496
1114	0.000546
1126	0.0005012
1138	0.0006048
1150	0.0007476
1162	0.0007252
1174	0.0004928
1186	0.0005992
1198	0.0008176
1210	0.0009856
1222	0.0009632
1234	0.0012432
1246	0.0018508
1258	0.002016
1270	0.0018816
1282	0.0017164
1294	0.0015792
1306	0.0013356
1318	0.0010472
1330	0.0011144
1342	0.0012068
1354	0.0012656
1366	0.001862
1378	0.002996
1390	0.0031836
1402	0.0016968
1414	0.0010836
1426	0.0016996
1438	0.0026432
1450	0.0037716
1462	0.0045388
1474	0.0034832
1486	0.001876
1498	0.00084
1510	0.0004704
1522	0.000364
1534	0.0003248
1546	0.0002716
1558	0.0002464
1570	0.000252
1582	0.0002268
1594	0.0002548
1606	0.000196
1618	0.000182
1630	0.0002156
1642	0.0001932
1654	0.0002016
1666	0.0001792
1678	0.0001652
1690	0.0001736
1702	0.0001428
1714	0.0001064
1726	0.0001008
1738	8.4e-05
1750	6.72e-05
1762	7.84e-05
1774	6.44e-05
1786	6.72e-05
1798	6.44e-05
1810	6.16e-05
1822	7.84e-05
1834	6.72e-05
1846	7e-05
1858	6.72e-05
1870	8.96e-05
1882	7.84e-05
1894	8.4e-05
1906	3.92e-05
1918	7e-05
1930	3.92e-05
1942	4.48e-05
1954	4.76e-05
1966	1.68e-05
1978	2.24e-05
1990	1.96e-05
2002	2.8e-05
2014	3.08e-05
2026	3.08e-05
2038	1.96e-05
2050	4.2e-05
2062	1.68e-05
2074	4.2e-05
2086	2.24e-05
2098	4.76e-05
2110	4.76e-05
2122	5.32e-05
2134	5.6e-05
2146	5.32e-05
2158	5.88e-05
2170	5.88e-05
2182	3.64e-05
2194	3.08e-05
2206	1.4e-05
2218	4.2e-05
2230	4.48e-05
2242	3.64e-05
2254	2.24e-05
2266	3.64e-05
2278	3.64e-05
2290	5.32e-05
2302	6.16e-05
2314	7.84e-05
2326	2.52e-05
2338	4.2e-05
2350	7e-05
2362	7e-05
2374	6.72e-05
2386	8.68e-05
2398	8.12e-05
2410	0.0001036
2422	0.0001204
2434	8.96e-05
2446	0.000126
2458	7.84e-05
2470	5.88e-05
2482	9.52e-05
2494	0.0001036
2506	9.52e-05
2518	0.0001092
2530	0.000112
2542	0.0001568
2554	0.000154
2566	0.000252
2578	0.0004088
2590	0.0005964
2602	0.0005768
2614	0.000406
2626	0.0003276
2638	0.0003136
2650	0.0002912
2662	0.0002968
2674	0.0003556
2686	0.0003388
2698	0.0004116
2710	0.0003976
2722	0.0004648
2734	0.000588
2746	0.0006076
2758	0.0006076
2770	0.0005964
2782	0.0006804
2794	0.0007924
2806	0.0009968
2818	0.0012068
2830	0.0017052
2842	0.0025592
2854	0.0044436
2866	0.0073752
2878	0.010458
2890	0.0112532
2902	0.0108696
2914	0.0131488
2926	0.0175868
2938	0.0195776
2950	0.0200648
2962	0.0258048
2974	0.02639
2986	0.0153664
2998	0.0051688
3010	0.0023268
3022	0.0015428
3034	0.0012572
3046	0.0011536
3058	0.001064
3070	0.0009772
3082	0.0008652
3094	0.0008036
3106	0.0006804
3118	0.0006328
3130	0.0005516
3142	0.0005488
3154	0.0005096
3166	0.0005124
3178	0.0003892
3190	0.0003696
3202	0.0002912
3214	0.0002268
3226	0.0001652
3238	0.0001512
3250	0.0001792
3262	0.0001316
3274	0.0001064
3286	9.24e-05
3298	0.0001708
3310	0.0001372
3322	0.0001652
3334	0.0001708
3346	8.12e-05
3358	0.0001764
3370	9.8e-05
3382	8.96e-05
3394	8.12e-05
3406	5.32e-05
3418	8.4e-05
3430	0.0001036
3442	9.24e-05
3454	4.48e-05
3466	2.24e-05
3478	2.24e-05
3490	5.32e-05
3502	0.0001204
3514	7e-05
3526	5.88e-05
3538	6.72e-05
3550	7.84e-05
3562	9.8e-05
3574	0.000126
3586	0.0001204
3598	8.12e-05
3610	5.04e-05
3622	3.36e-05
3634	0.0001176
3646	8.12e-05
3658	8.68e-05
3670	9.52e-05
3682	7.56e-05
3694	8.96e-05
3706	5.88e-05
3718	8.96e-05
3730	2.24e-05
3742	7.28e-05
3754	4.48e-05
3766	6.72e-05
3778	8.96e-05
3790	9.8e-05
3802	9.24e-05
3814	0.000112
3826	0.0001316
3838	8.4e-05
