Infrared Spectrum: 1,2-Propadiene
Formula: C 3 H 4
CAS: 463-49-0
State: gas
Origin: Sadtler Research Labs Under US-EPA Contract
1/CM	ABSORBANCE
450	0.0264326
462	0.0123751
474	0.00960846
486	0.00572021
498	0.0106927
510	0.012562
522	0.010917
534	0.0123003
546	0.0112161
558	0.0124125
570	0.0128985
582	0.0121508
594	0.0153661
606	0.0144688
618	0.0116647
630	0.0152165
642	0.0140949
654	0.0156652
666	0.0176467
678	0.018357
690	0.0244137
702	0.0284889
714	0.0315172
726	0.0455
738	0.0517436
750	0.0661002
762	0.0823636
774	0.102814
786	0.135304
798	0.183271
810	0.226117
822	0.215162
834	0.224546
846	0.311845
858	0.302835
870	0.278907
882	0.250979
894	0.186748
906	0.167307
918	0.111825
930	0.0704745
942	0.044341
954	0.0259466
966	0.0200768
978	0.0208619
990	0.0242642
1002	0.0317416
1014	0.0306573
1026	0.0327136
1038	0.0486405
1050	0.0414248
1062	0.0341343
1074	0.0296105
1086	0.029274
1098	0.0265822
1110	0.0233669
1122	0.0223948
1134	0.0177962
1146	0.018357
1158	0.0151791
1170	0.0145435
1182	0.0135715
1194	0.0121882
1206	0.0112535
1218	0.0109544
1230	0.00934675
1242	0.00923459
1254	0.00871117
1266	0.00822514
1278	0.00930936
1290	0.0101693
1302	0.0121882
1314	0.0146557
1326	0.0169363
1338	0.0180579
1350	0.0220583
1362	0.0349195
1374	0.0596697
1386	0.0572021
1398	0.0478554
1410	0.0512576
1422	0.0294236
1434	0.0134967
1446	0.0101693
1458	0.00755217
1470	0.0077765
1482	0.00744001
1494	0.00725308
1506	0.00635579
1518	0.00586976
1530	0.00616885
1542	0.00560805
1554	0.00613147
1566	0.00646795
1578	0.00714092
1590	0.00687921
1602	0.00725308
1614	0.00837469
1626	0.0107675
1638	0.0160764
1650	0.0286758
1662	0.0489022
1674	0.0613521
1686	0.0477432
1698	0.0611277
1710	0.0451635
1722	0.0204507
1734	0.00960846
1746	0.00676705
1758	0.00579498
1770	0.00572021
1782	0.00530895
1794	0.00515941
1806	0.00549589
1818	0.00538373
1830	0.0054585
1842	0.00508463
1854	0.00553328
1866	0.00609408
1878	0.00773911
1890	0.0130855
1902	0.0290871
1914	0.0776154
1926	0.189589
1938	0.3102
1950	0.306648
1962	0.310611
1974	0.371851
1986	0.148426
1998	0.0219462
2010	0.0171606
2022	0.0162633
2034	0.00942152
2046	0.00658011
2058	0.00512202
2070	0.00530895
2082	0.00497247
2094	0.00474815
2106	0.00482292
2118	0.00411257
2130	0.00351438
2142	0.00351438
2154	0.0034396
2166	0.0034396
2178	0.00347699
2190	0.00329006
2202	0.00306573
2214	0.00336483
2226	0.00276664
2238	0.00299096
2250	0.0031779
2262	0.00280402
2274	0.00261709
2286	0.00310312
2298	0.00314051
2310	0.00362654
2322	0.00265448
2334	0.00216845
2346	0.00340222
2358	0.00325267
2370	0.0040378
2382	0.0040378
2394	0.00366393
2406	0.00314051
2418	0.00377609
2430	0.00329006
2442	0.00370131
2454	0.00302835
2466	0.00284141
2478	0.00265448
2490	0.00213106
2502	0.00142071
2514	0.00186935
2526	0.00145809
2538	0.00134593
2550	0.00175719
2562	0.00112161
2574	0.00123377
2586	0.00123377
2598	0.000972062
2610	0.000897288
2622	0.00100945
2634	0.000672966
2646	0.000859901
2658	0.000897288
2670	0.000635579
2682	0.000411257
2694	0.000560805
2706	0.000299096
2718	0.000672966
2730	0.000186935
2742	0.000448644
2754	0.000560805
2766	0.00037387
2778	0.000635579
2790	0.00119638
2802	0.00329006
2814	0.00500986
2826	0.0037387
2838	0.00463599
2850	0.0040378
2862	0.00149548
2874	0.00157025
2886	0.00183196
2898	0.00142071
2910	0.00190674
2922	0.00220583
2934	0.00231799
2946	0.0034396
2958	0.00639318
2970	0.0148053
2982	0.0334988
2994	0.0405649
3006	0.0320033
3018	0.0542859
3030	0.0300965
3042	0.0116274
3054	0.0105057
3066	0.00788866
3078	0.00975801
3090	0.0151791
3102	0.00990756
3114	0.0100945
3126	0.0118143
3138	0.0091972
3150	0.00628102
3162	0.00601931
3174	0.00527157
3186	0.00411257
3198	0.00388825
3210	0.00276664
3222	0.00153287
3234	0.00130854
3246	0.00205629
3258	0.00119638
3270	0.00138332
3282	0.00130854
3294	0.00123377
3306	0.000785127
3318	0.00134593
3330	0.000822514
3342	0.00123377
3354	0.001159
3366	0.00220583
3378	0.00127116
3390	0.00160764
3402	0.00224322
3414	0.00168242
3426	0.00186935
3438	0.0017198
3450	0.00119638
3462	0.00108422
3474	0.00119638
3486	3.7387e-05
3498	0.000934675
3510	0.00130854
3522	0.00123377
3534	0.000785127
3546	0.00134593
3558	0.00123377
3570	0.00123377
3582	0.000972062
3594	0.00138332
3606	0.00183196
3618	0.00160764
3630	0.00265448
3642	0.00153287
3654	0.00265448
3666	0.00134593
3678	0.00213106
3690	0.0017198
3702	0.00153287
3714	0.001159
3726	0.00142071
3738	0.00145809
3750	0.00183196
3762	0.00127116
3774	0.00153287
3786	0.00164503
3798	0.00100945
3810	0.00100945
3822	0.00145809
3834	0.000785127
3846	0.000635579
3858	0.000822514
3870	3.7387e-05
3882	0
3894	0.00108422
3906	0.00104684
3918	0.00104684
3930	0.000635579
3942	0.000411257
3954	0.00216845
3966	0.00321528
