Infrared Spectrum: PROPADIENE
Formula: C3 H4
CAS: 463-49-0
State: GAS (75 mmHg DILUTED TO A TOTAL PRESSURE OF 600 mmHg WITH N2)
Class: COBLENTZ
Instrument: DOW KBr FOREPRISM-GRATING
Instrument parameters: BLAZED AT 3.5, 12.0, 20.0 MICRON, CHANGED AT 5.0, 7.5, 14.9 MICRON
Sampling: TRANSMISSION
Path length: 5 CM CELL
Resolution: 4
Origin: DOW CHEMICAL COMPANY
1/CM	TRANSMITTANCE
388.14	0.931
396.9	0.931
405.66	0.925
414.42	0.921
423.18	0.918
431.94	0.916
440.701	0.914
449.461	0.917
458.221	0.918
466.981	0.924
475.741	0.931
484.501	0.932
493.261	0.932
502.021	0.929
510.781	0.927
519.541	0.92
528.302	0.918
537.062	0.913
545.822	0.913
554.582	0.913
563.342	0.912
572.102	0.91
580.862	0.909
589.622	0.913
598.382	0.913
607.142	0.918
615.903	0.923
624.663	0.928
633.423	0.916
642.183	0.934
650.943	0.945
659.703	0.939
668.463	0.942
677.223	0.947
685.983	0.951
694.743	0.949
703.504	0.942
712.264	0.932
721.024	0.929
729.784	0.89
738.544	0.865
747.304	0.892
756.064	0.85
764.824	0.777
773.584	0.745
782.344	0.662
791.104	0.376
799.865	0.607
808.625	0.524
817.385	0.489
826.145	0.465
834.905	0.432
843.665	0.428
852.425	0.406
861.185	0.335
869.945	0.392
878.705	0.262
887.466	0.46
896.226	0.4839
904.986	0.523
913.746	0.4751
922.506	0.725
931.266	0.799
940.026	0.843
948.786	0.876
957.546	0.884
966.306	0.884
975.067	0.859
983.827	0.87
992.587	0.846
1001.35	0.842
1010.11	0.831
1018.87	0.795
1027.63	0.802
1036.39	0.813
1045.15	0.806
1053.91	0.8
1062.67	0.807
1071.43	0.769
1080.19	0.811
1088.95	0.835
1097.71	0.853
1106.47	0.862
1115.23	0.853
1123.99	0.869
1132.75	0.879
1141.51	0.873
1150.27	0.873
1159.03	0.877
1167.79	0.873
1176.55	0.877
1185.31	0.875
1194.07	0.875
1202.83	0.876
1211.59	0.88
1220.35	0.879
1229.11	0.877
1237.87	0.879
1246.63	0.879
1255.39	0.875
1264.15	0.873
1272.91	0.872
1281.67	0.87
1290.43	0.869
1299.19	0.868
1307.95	0.861
1316.71	0.854
1325.47	0.848
1334.23	0.842
1342.99	0.833
1351.75	0.832
1360.51	0.814
1369.27	0.767
1378.03	0.686
1386.79	0.699
1395.55	0.762
1404.31	0.733
1413.07	0.737
1421.83	0.803
1430.59	0.847
1439.35	0.859
1448.11	0.864
1456.87	0.869
1465.63	0.876
1474.39	0.87
1483.15	0.876
1491.91	0.877
1500.67	0.88
1509.43	0.876
1518.19	0.881
1526.95	0.883
1535.71	0.884
1544.47	0.881
1553.23	0.883
1561.99	0.873
1570.75	0.894
1579.51	0.902
1588.27	0.934
1597.03	0.946
1605.79	0.934
1614.55	0.918
1623.31	0.901
1632.07	0.88
1640.83	0.861
1649.59	0.824
1658.35	0.776
1667.11	0.692
1675.87	0.659
1684.63	0.719
1693.39	0.673
1702.15	0.681
1710.91	0.793
1719.67	0.85
1728.43	0.877
1737.2	0.884
1745.96	0.884
1754.72	0.885
1763.48	0.888
1772.24	0.883
1781	0.887
1789.76	0.887
1798.52	0.89
1807.28	0.887
1816.04	0.887
1824.8	0.887
1833.56	0.887
1842.32	0.883
1851.08	0.89
1859.84	0.887
1868.6	0.884
1877.36	0.885
1886.12	0.881
1894.88	0.872
1903.64	0.865
1912.4	0.84
1921.16	0.74
1929.92	0.537
1938.68	0.269
1947.44	0.186
1956.2	0.245
1964.96	0.164
1973.72	0.137
1982.48	0.342
1991.24	0.723
2000	0.804
2008.76	0.829
2017.52	0.817
2026.28	0.833
2035.04	0.8543
2043.8	0.8751
2052.56	0.8851
2061.32	0.8872
2070.08	0.89
2078.84	0.8901
2087.6	0.8909
2096.36	0.89
2105.12	0.888
2113.88	0.8901
2122.64	0.892
2131.4	0.892
2140.16	0.894
2148.92	0.892
2157.68	0.891
2166.44	0.8911
2175.2	0.8912
2183.96	0.8942
2192.72	0.895
2201.48	0.8976
2210.24	0.892
2219	0.892
2227.76	0.892
2236.52	0.898
2245.28	0.8964
2254.04	0.901
2262.8	0.901
2271.56	0.901
2280.32	0.8975
2289.08	0.899
2297.84	0.898
2306.6	0.899
2315.36	0.899
2324.12	0.899
2332.88	0.8987
2341.64	0.896
2350.4	0.896
2359.16	0.898
2367.92	0.899
2376.68	0.8983
2385.44	0.9013
2394.2	0.902
2402.96	0.902
2411.72	0.9016
2420.48	0.8984
2429.24	0.899
2438	0.903
2446.76	0.9038
2455.52	0.9078
2464.28	0.9078
2473.04	0.9094
2481.8	0.9083
2490.56	0.909
2499.32	0.909
2508.08	0.9125
2516.84	0.913
2525.6	0.9149
2534.36	0.917
2543.12	0.917
2551.88	0.915
2560.64	0.913
2569.4	0.916
2578.16	0.917
2586.92	0.9175
2595.68	0.92
2604.44	0.9205
2613.2	0.923
2621.96	0.92
2630.72	0.921
2639.49	0.921
2648.25	0.92
2657.01	0.923
2665.77	0.923
2674.53	0.9242
2683.29	0.924
2692.05	0.924
2700.81	0.924
2709.57	0.921
2718.33	0.921
2727.09	0.9223
2735.85	0.921
2744.61	0.923
2753.37	0.924
2762.13	0.924
2770.89	0.9216
2779.65	0.92
2788.41	0.9133
2797.17	0.9093
2805.93	0.8983
2814.69	0.8975
2823.45	0.9017
2832.21	0.901
2840.97	0.899
2849.73	0.905
2858.49	0.9098
2867.25	0.9128
2876.01	0.913
2884.77	0.914
2893.53	0.914
2902.29	0.914
2911.05	0.9122
2919.81	0.9034
2928.57	0.905
2937.33	0.903
2946.09	0.901
2954.85	0.8981
2963.61	0.9007
2972.37	0.8964
2981.13	0.8736
2989.89	0.8222
2998.65	0.7625
3007.41	0.802
3016.17	0.8065
3024.93	0.7321
3033.69	0.8662
3042.45	0.8909
3051.21	0.9118
3059.97	0.9019
3068.73	0.9009
3077.49	0.884
3086.25	0.8872
3095.01	0.8587
3103.77	0.9046
3112.53	0.906
3121.29	0.89
3130.05	0.8901
3138.81	0.913
3147.57	0.916
3156.33	0.9249
3165.09	0.938
3173.85	0.94
3182.61	0.9421
3191.37	0.9461
3200.13	0.9471
3208.89	0.953
3217.65	0.954
3226.41	0.96
3235.17	0.964
3243.93	0.962
3252.69	0.965
3261.45	0.9653
3270.21	0.969
3278.97	0.971
3287.73	0.9751
3296.49	0.9792
3305.25	0.979
3314.01	0.9776
3322.77	0.975
3331.53	0.973
3340.29	0.973
3349.05	0.975
3357.81	0.978
3366.57	0.9792
3375.33	0.982
3384.09	0.984
3392.85	0.982
3401.61	0.9787
3410.37	0.976
3419.13	0.9783
3427.89	0.9823
3436.65	0.984
3445.41	0.983
3454.17	0.983
3462.93	0.983
3471.69	0.983
3480.45	0.984
3489.21	0.986
3497.97	0.989
3506.73	0.99
3515.49	0.991
3524.25	0.99
3533.02	0.99
3541.78	0.989
3550.54	0.989
3559.3	0.99
3568.06	0.9918
3576.82	0.9958
3585.58	0.994
3594.34	0.9961
3603.1	0.9906
3611.86	0.9866
3620.62	0.9849
3629.38	0.9879
3638.14	0.99
3646.9	0.9935
3655.66	0.996
3664.42	0.9975
3673.18	0.992
3681.94	0.9945
3690.7	0.998
3699.46	1.0005
3708.22	1.001
3716.98	1.001
3725.74	1.001
3734.5	1
3743.26	0.997
3752.02	0.998
3760.78	1.0016
3769.54	1.004
3778.3	1.006
3787.06	1.0032
3795.82	1
