Infrared Spectrum: 3-Butyn-2-ol
Formula: C 4 H 6 O
CAS: 2028-63-9
State: gas
Origin: EPA-IR VAPOR PHASE LIBRARY
1/CM	ABSORBANCE
549.9	0.02296
559.547	0.01691
569.193	0.01401
578.84	0.01051
588.486	0.00989
598.133	0.01264
607.779	0.02085
617.426	0.03712
627.072	0.06846
636.719	0.11444
646.365	0.1608
656.012	0.11897
665.658	0.05802
675.305	0.03651
684.951	0.0192
694.598	0.00963
704.245	0.00574
713.891	0.00424
723.538	0.00353
733.184	0.00374
742.831	0.00304
752.477	0.00327
762.124	0.00392
771.77	0.00542
781.417	0.00763
791.063	0.00986
800.71	0.01151
810.356	0.01093
820.003	0.00952
829.649	0.0074
839.296	0.00548
848.943	0.00428
858.589	0.00381
868.236	0.00397
877.882	0.00506
887.529	0.00797
897.175	0.01463
906.822	0.02568
916.468	0.03287
926.115	0.03312
935.761	0.03255
945.408	0.02068
955.054	0.01076
964.701	0.00784
974.347	0.0092
983.994	0.01441
993.64	0.02511
1003.29	0.04198
1012.93	0.06017
1022.58	0.07109
1032.23	0.08001
1041.87	0.07657
1051.52	0.06329
1061.17	0.0521
1070.81	0.04893
1080.46	0.05549
1090.11	0.07322
1099.75	0.09031
1109.4	0.08658
1119.05	0.0786
1128.69	0.05894
1138.34	0.03468
1147.99	0.02083
1157.63	0.01421
1167.28	0.01208
1176.92	0.01153
1186.57	0.01195
1196.22	0.01263
1205.86	0.01433
1215.51	0.01719
1225.16	0.02291
1234.8	0.03357
1244.45	0.04772
1254.1	0.05287
1263.74	0.05145
1273.39	0.04981
1283.04	0.04051
1292.68	0.03161
1302.33	0.03288
1311.98	0.03588
1321.62	0.0415
1331.27	0.05074
1340.92	0.05807
1350.56	0.06142
1360.21	0.06312
1369.86	0.06012
1379.5	0.05136
1389.15	0.03983
1398.79	0.02576
1408.44	0.01589
1418.09	0.0122
1427.73	0.01175
1437.38	0.0123
1447.03	0.01349
1456.67	0.01291
1466.32	0.009
1475.97	0.00687
1485.61	0.00481
1495.26	0.00334
1504.91	0.0024508
1514.55	0.0019011
1524.2	0.0016226
1533.85	0.0015731
1543.49	0.001367
1553.14	0.001254
1562.79	0.001073
1572.43	0.000914
1582.08	0.0009
1591.73	0.000864
1601.37	0.000788
1611.02	0.000694
1620.67	0.000649
1630.31	0.000545
1639.96	0.000599
1649.6	0.000588
1659.25	0.000486
1668.9	0.000566
1678.54	0.00047
1688.19	0.000575
1697.84	0.000743
1707.48	0.000709
1717.13	0.000947
1726.78	0.000799
1736.42	0.000662
1746.07	0.000606
1755.72	0.000515
1765.36	0.000524
1775.01	0.00045
1784.66	0.00031
1794.3	0.00039
1803.95	0.00044
1813.6	0.000524
1823.24	0.000706
1832.89	0.00082
1842.54	0.00087
1852.18	0.000798
1861.83	0.00076
1871.47	0.000672
1881.12	0.00055
1890.77	0.000582
1900.41	0.000628
1910.06	0.000657
1919.71	0.000831
1929.35	0.000977
1939	0.001104
1948.65	0.000915
1958.29	0.00089
1967.94	0.000683
1977.59	0.0005
1987.23	0.00035
1996.88	0.00044
2006.53	0.00047
2016.17	0.000638
2025.82	0.000604
2035.47	0.000621
2045.11	0.000518
2054.76	0.00047
2064.41	0.00036
2074.05	0.00031
2083.7	0.00043
2093.35	0.000595
2102.99	0.000805
2112.64	0.001
2122.28	0.001099
2131.93	0.001085
2141.58	0.000919
2151.22	0.000831
2160.87	0.000675
2170.52	0.000633
2180.16	0.000553
2189.81	0.000571
2199.46	0.000477
2209.1	0.00039
2218.75	0.00036
2228.4	0.00031
2238.04	0.0004
2247.69	0.00043
2257.34	0.000499
2266.98	0.000534
2276.63	0.00063
2286.28	0.000772
2295.92	0.000739
2305.57	0.000707
2315.22	0.000651
2324.86	0.00058
2334.51	0.000513
2344.16	0.00045
2353.8	0.000548
2363.45	0.00067
2373.09	0.000739
2382.74	0.000722
2392.39	0.000716
2402.03	0.000826
2411.68	0.000856
2421.33	0.00087
2430.97	0.000798
2440.62	0.00089
2450.27	0.000824
2459.91	0.000932
2469.56	0.000892
2479.21	0.000827
2488.85	0.000843
2498.5	0.000885
2508.15	0.000827
2517.79	0.000718
2527.44	0.000704
2537.09	0.000597
2546.73	0.000603
2556.38	0.000741
2566.03	0.000832
2575.67	0.000977
2585.32	0.001211
2594.96	0.0014056
2604.61	0.00148203
2614.26	0.001296
2623.9	0.0014054
2633.55	0.001274
2643.2	0.001319
2652.84	0.001275
2662.49	0.00149258
2672.14	0.0016499
2681.78	0.0017764
2691.43	0.001453
2701.08	0.001342
2710.72	0.001265
2720.37	0.001292
2730.02	0.0014211
2739.66	0.00152129
2749.31	0.00150226
2758.96	0.0015801
2768.6	0.001362
2778.25	0.00153025
2787.9	0.0015717
2797.54	0.0017596
2807.19	0.0019783
2816.84	0.0023196
2826.48	0.0024595
2836.13	0.00297
2845.77	0.0041
2855.42	0.00679
2865.07	0.01138
2874.71	0.01625
2884.36	0.02162
2894.01	0.02685
2903.65	0.02779
2913.3	0.02719
2922.95	0.02679
2932.59	0.02635
2942.24	0.02339
2951.89	0.0231
2961.53	0.02432
2971.18	0.03132
2980.83	0.04635
2990.47	0.05775
3000.12	0.04758
3009.77	0.03664
3019.41	0.01659
3029.06	0.0059
3038.71	0.0020683
3048.35	0.000793
3058	0.00032
3067.64	0.00032
3077.29	0.00033
3086.94	0.00035
3096.58	0.000527
3106.23	0.000474
3115.88	0.000658
3125.52	0.00039
3135.17	0.000661
3144.82	0.00045
3154.46	0.00038
3164.11	0.0004
3173.76	0.000907
3183.4	0.00035
3193.05	0.000477
3202.7	8e-05
3212.34	0.00027
3221.99	0.00013
3231.64	0.00018
3241.28	0.000654
3250.93	0.001218
3260.58	0.0022307
3270.22	0.0051
3279.87	0.00913
3289.52	0.01978
3299.16	0.03043
3308.81	0.06087
3318.45	0.06915
3328.1	0.07971
3337.75	0.05934
3347.39	0.03035
3357.04	0.00608
3366.69	0.00257
3376.33	0.0018418
3385.98	0.001156
3395.63	0.000831
3405.27	0.000624
3414.92	0.00037
3424.57	0.00022
3434.21	0.00018
3443.86	0.00029
3453.51	0.00019
3463.15	0.00042
3472.8	0.000646
3482.45	0.00097
3492.09	0.001051
3501.74	0.001117
3511.39	0.001326
3521.03	0.001121
3530.68	0.001312
3540.33	0.001042
3549.97	0.001158
3559.62	0.00054
3569.26	0.000628
3578.91	0.000666
3588.56	0.000759
3598.2	0.0015838
3607.85	0.00337
3617.5	0.00727
3627.14	0.01492
3636.79	0.02489
3646.44	0.0296
3656.08	0.02621
3665.73	0.02445
3675.38	0.01386
3685.02	0.00624
3694.67	0.0023931
3704.32	0.00106
3713.96	0.00104
3723.61	0.000707
3733.26	0.000698
3742.9	0.000944
3752.55	0.001044
3762.2	0.001043
3771.84	0.001196
3781.49	0.001306
3791.13	0.001192
3800.78	0.001282
3810.43	0.001221
3820.07	0.001083
3829.72	0.001115
3839.37	0.001
3849.01	0.000772
3858.66	0.000856
3868.31	0.000929
3877.95	0.001072
3887.6	0.001169
3897.25	0.001178
3906.89	0.001121
3916.54	0.0014122
3926.19	0.001261
3935.83	0.0016206
3945.48	0.0016985
3955.13	0.0018004
3964.77	0.001242
3974.42	0.000928
3984.07	0.000559
3993.71	0.00034
