Infrared Spectrum: PROPENE, 1-CHLORO- (ABOUT 90% TRANS)
Formula: C3 H5 Cl
CAS: 590-21-6
State: SOLUTION (10% CCl4 FOR 2.6-7.5, 10% CS2 FOR 7.5-22 MICRON)
Class: COBLENTZ III
Instrument: DOW KBr FOREPRISM-GRATING
Instrument parameters: BLAZED AT 3.5, 12.0, 20.0 MICRON AND CHANGED AT 5.0, 7.5, 14.9 MICRON
Sampling: TRANSMISSION
Path length: 0.011 CM, 0.011 CM
Resolution: 2
Origin: DOW CHEMICAL COMPANY
1/CM	TRANSMITTANCE
3816	0.8941
3807	0.8925
3798	0.8908
3789	0.8921
3780	0.8957
3771	0.8987
3762	0.8998
3753	0.8994
3744	0.8946
3735	0.8912
3726	0.8896
3717	0.8888
3708	0.8923
3699	0.8946
3690	0.8932
3681	0.8924
3672	0.8932
3663	0.8934
3654	0.8949
3645	0.8962
3636	0.8973
3627	0.8984
3618	0.8991
3609	0.8989
3600	0.8988
3591	0.8987
3582	0.8988
3573	0.8992
3564	0.8997
3555	0.9004
3546	0.9015
3537	0.9025
3528	0.9037
3519	0.9046
3510	0.9056
3501	0.9066
3492	0.9075
3483	0.9086
3474	0.9096
3465	0.9107
3456	0.9121
3447	0.9142
3438	0.9164
3429	0.9192
3420	0.921
3411	0.9221
3402	0.9221
3393	0.9211
3384	0.9195
3375	0.9178
3366	0.9165
3357	0.9151
3348	0.9145
3339	0.9139
3330	0.9134
3321	0.9131
3312	0.9125
3303	0.91
3294	0.9062
3285	0.9016
3276	0.9
3267	0.8987
3258	0.8975
3249	0.8967
3240	0.8975
3231	0.8983
3222	0.8991
3213	0.8999
3204	0.8993
3195	0.8975
3186	0.8958
3177	0.8939
3168	0.8918
3159	0.8896
3150	0.8865
3141	0.8828
3132	0.879
3123	0.8747
3114	0.8715
3105	0.8625
3096	0.8368
3087	0.8193
3078	0.7783
3069	0.506
3060	0.5523
3051	0.7508
3042	0.7574
3033	0.7134
3024	0.7276
3015	0.7462
3006	0.7642
2997	0.7714
2988	0.6783
2979	0.5558
2970	0.4885
2961	0.5028
2952	0.4462
2943	0.4962
2934	0.6266
2925	0.3944
2916	0.4007
2907	0.7346
2898	0.7845
2889	0.7882
2880	0.6467
2871	0.6838
2862	0.6654
2853	0.4962
2844	0.8075
2835	0.843
2826	0.849
2817	0.853
2808	0.8625
2799	0.8713
2790	0.8781
2781	0.8821
2772	0.8825
2763	0.8809
2754	0.8792
2745	0.8678
2736	0.8411
2727	0.853
2718	0.8778
2709	0.8825
2700	0.8842
2691	0.8848
2682	0.885
2673	0.8862
2664	0.8878
2655	0.8885
2646	0.8891
2637	0.8898
2628	0.8905
2619	0.8913
2610	0.892
2601	0.8928
2592	0.8935
2583	0.8943
2574	0.8936
2565	0.8925
2556	0.8921
2547	0.8914
2538	0.8863
2529	0.8818
2520	0.884
2511	0.887
2502	0.8887
2493	0.8901
2484	0.8895
2475	0.882
2466	0.8773
2457	0.8832
2448	0.8868
2439	0.8895
2430	0.8908
2421	0.8918
2412	0.8918
2403	0.8918
2394	0.8911
2385	0.8894
2376	0.8878
2367	0.8875
2358	0.889
2349	0.8907
2340	0.8925
2331	0.8923
2322	0.8713
2313	0.8668
2304	0.8803
2295	0.8795
2286	0.8775
2277	0.8768
2268	0.8775
2259	0.879
2250	0.8806
2241	0.883
2232	0.8854
2223	0.8859
2214	0.8864
2205	0.8866
2196	0.8865
2187	0.8863
2178	0.8863
2169	0.8865
2160	0.8867
2151	0.8868
2142	0.887
2133	0.8877
2124	0.8885
2115	0.8892
2106	0.8898
2097	0.8903
2088	0.8907
2079	0.8907
2070	0.8906
2061	0.8906
2052	0.8897
2043	0.8894
2034	0.8895
2025	0.8903
2016	0.8909
2007	0.8912
1998	0.8332
1989	0.883
1980	0.8774
1971	0.8674
1962	0.8662
1953	0.8808
1944	0.8832
1935	0.8839
1926	0.8834
1917	0.8836
1908	0.88
1899	0.8767
1890	0.877
1881	0.8771
1872	0.8775
1863	0.874
1854	0.8734
1845	0.8759
1836	0.8768
1827	0.8793
1818	0.8785
1809	0.8789
1800	0.8821
1791	0.8686
1782	0.8733
1773	0.8785
1764	0.88
1755	0.8807
1746	0.8788
1737	0.8803
1728	0.8761
1719	0.8718
1710	0.8667
1701	0.8591
1692	0.8321
1683	0.7847
1674	0.706
1665	0.7894
1656	0.8115
1647	0.5808
1638	0.3157
1629	0.6636
1620	0.7692
1611	0.7771
1602	0.7422
1593	0.6788
1584	0.6155
1575	0.606
1566	0.5673
1557	0.5351
1548	0.4579
1539	0.4868
1530	0.5746
1521	0.6326
1512	0.6621
1503	0.7149
1494	0.7394
1485	0.7628
1476	0.77
1467	0.7344
1458	0.6674
1449	0.4569
1440	0.4518
1431	0.5329
1422	0.699
1413	0.7653
1404	0.7935
1395	0.7958
1386	0.7619
1377	0.7089
1368	0.816
1359	0.8404
1350	0.8424
1341	0.8459
1332	0.8232
1323	0.6359
1314	0.7469
1305	0.7565
1296	0.7289
1287	0.6478
1278	0.7435
1269	0.7667
1260	0.7676
1251	0.716
1242	0.2092
1233	0.5993
1224	0.7346
1215	0.7846
1206	0.8149
1197	0.8331
1188	0.8431
1179	0.8467
1170	0.8498
1161	0.8517
1152	0.8427
1143	0.8423
1134	0.8452
1125	0.8364
1116	0.825
1107	0.8314
1098	0.8273
1089	0.8015
1080	0.8255
1071	0.831
1062	0.8317
1053	0.8285
1044	0.8149
1035	0.8074
1026	0.808
1017	0.8092
1008	0.8042
999	0.7935
990	0.7803
981	0.7522
972	0.6517
963	0.431
954	0.1989
945	0.1916
936	0.1368
927	0.0125
918	0.0895
909	0.4479
900	0.6225
891	0.6821
882	0.7028
873	0.698
864	0.6772
855	0.66
846	0.7118
837	0.7601
828	0.7796
819	0.7662
810	0.6761
801	0.2684
792	0.0682
783	0.496
774	0.7117
765	0.7618
756	0.7158
747	0.5882
738	0.7744
729	0.8091
720	0.8215
711	0.8228
702	0.804
693	0.7501
684	0.5217
675	0.7435
666	0.8061
657	0.8168
648	0.8264
639	0.8494
630	0.8614
621	0.8647
612	0.8677
603	0.8815
594	0.8878
585	0.8736
576	0.8903
567	0.8905
558	0.8778
549	0.886
540	0.8905
531	0.8937
522	0.895
513	0.8956
504	0.8958
495	0.894
486	0.8901
477	0.8832
468	0.875
459	0.8671
