Infrared Spectrum: Propene, 1-chloro- (ABOUT 83% CIS)
Formula: C3 H5 Cl
CAS: 590-21-6
State: SOLUTION (10% CCl4 FOR 2.6-7.5, 10% CS2 FOR 7.5-22 MICRON)
Class: COBLENTZ III
Instrument: DOW KBr FOREPRISM-GRATING
Instrument parameters: BLAZED AT 3.5, 12.0, 20.0 MICRON AND CHANGED AT 5.0, 7.5, 14.9 MICRON
Sampling: TRANSMISSION
Path length: 0.011 CM, 0.011 CM
Resolution: 2
Origin: DOW CHEMICAL COMPANY
1/CM	TRANSMITTANCE
3820	0.929
3811	0.9287
3802	0.9281
3793	0.9298
3784	0.9296
3775	0.9297
3766	0.9317
3757	0.9321
3748	0.9327
3739	0.9335
3730	0.9345
3721	0.9339
3712	0.9339
3703	0.9343
3694	0.9323
3685	0.9297
3676	0.9286
3667	0.928
3658	0.9275
3649	0.9269
3640	0.926
3631	0.9265
3622	0.9256
3613	0.9249
3604	0.9263
3595	0.9292
3586	0.9355
3577	0.9386
3568	0.9391
3559	0.9401
3550	0.942
3541	0.9416
3532	0.9392
3523	0.9391
3514	0.9413
3505	0.943
3496	0.9444
3487	0.9459
3478	0.948
3469	0.95
3460	0.9524
3451	0.9554
3442	0.9582
3433	0.9596
3424	0.9607
3415	0.9619
3406	0.9628
3397	0.962
3388	0.96
3379	0.9553
3370	0.9517
3361	0.9483
3352	0.949
3343	0.9499
3334	0.9501
3325	0.9504
3316	0.9507
3307	0.9509
3298	0.95
3289	0.9489
3280	0.9455
3271	0.9427
3262	0.9409
3253	0.9448
3244	0.9449
3235	0.946
3226	0.9436
3217	0.9441
3208	0.9415
3199	0.9412
3190	0.9394
3181	0.9369
3172	0.935
3163	0.9337
3154	0.9343
3145	0.9245
3136	0.9205
3127	0.9146
3118	0.9069
3109	0.8907
3100	0.8405
3091	0.7237
3082	0.7684
3073	0.8094
3064	0.7876
3055	0.8232
3046	0.7696
3037	0.6956
3028	0.6956
3019	0.7356
3010	0.7651
3001	0.78
2992	0.7352
2983	0.7111
2974	0.7095
2965	0.6944
2956	0.631
2947	0.589
2938	0.6292
2929	0.5703
2920	0.4263
2911	0.7168
2902	0.7759
2893	0.8048
2884	0.8019
2875	0.7993
2866	0.7996
2857	0.6686
2848	0.8268
2839	0.8689
2830	0.8883
2821	0.9004
2812	0.9074
2803	0.9142
2794	0.9187
2785	0.9217
2776	0.9256
2767	0.9279
2758	0.9284
2749	0.9158
2740	0.902
2731	0.9159
2722	0.924
2713	0.9287
2704	0.9296
2695	0.9298
2686	0.9307
2677	0.9319
2668	0.9334
2659	0.9343
2650	0.9352
2641	0.9317
2632	0.9314
2623	0.9317
2614	0.9322
2605	0.9326
2596	0.9331
2587	0.9333
2578	0.9336
2569	0.934
2560	0.934
2551	0.9339
2542	0.9338
2533	0.9334
2524	0.9332
2515	0.933
2506	0.9329
2497	0.9329
2488	0.933
2479	0.9344
2470	0.9342
2461	0.934
2452	0.9337
2443	0.9336
2434	0.9335
2425	0.9332
2416	0.9323
2407	0.9315
2398	0.9312
2389	0.9318
2380	0.9344
2371	0.94
2362	0.9399
2353	0.9469
2344	0.9503
2335	0.9494
2326	0.9484
2317	0.9401
2308	0.9348
2299	0.9357
2290	0.9373
2281	0.9349
2272	0.935
2263	0.9327
2254	0.9299
2245	0.93
2236	0.9324
2227	0.9349
2218	0.9352
2209	0.9358
2200	0.9384
2191	0.938
2182	0.9391
2173	0.9405
2164	0.9396
2155	0.9403
2146	0.9409
2137	0.9413
2128	0.9418
2119	0.9421
2110	0.942
2101	0.9419
2092	0.9418
2083	0.9414
2074	0.941
2065	0.9403
2056	0.941
2047	0.9385
2038	0.9378
2029	0.9373
2020	0.9382
2011	0.9367
2002	0.9334
1993	0.9046
1984	0.9268
1975	0.9249
1966	0.9237
1957	0.9208
1948	0.9141
1939	0.9109
1930	0.9203
1921	0.9251
1912	0.9262
1903	0.9281
1894	0.9278
1885	0.9225
1876	0.92
1867	0.9194
1858	0.919
1849	0.9198
1840	0.9219
1831	0.9215
1822	0.9151
1813	0.9161
1804	0.9176
1795	0.918
1786	0.9159
1777	0.9144
1768	0.9177
1759	0.9154
1750	0.9206
1741	0.9195
1732	0.9143
1723	0.9073
1714	0.9046
1705	0.9101
1696	0.9123
1687	0.8933
1678	0.8712
1669	0.8817
1660	0.8684
1651	0.8339
1642	0.4917
1633	0.2746
1624	0.5655
1615	0.7777
1606	0.8024
1597	0.7199
1588	0.7438
1579	0.8099
1570	0.8314
1561	0.8062
1552	0.7932
1543	0.8219
1534	0.847
1525	0.8348
1516	0.84
1507	0.8274
1498	0.8329
1489	0.835
1480	0.8481
1471	0.8276
1462	0.7927
1453	0.7363
1444	0.549
1435	0.5882
1426	0.6738
1417	0.7466
1408	0.8089
1399	0.8368
1390	0.8148
1381	0.6444
1372	0.7617
1363	0.825
1354	0.8382
1345	0.8237
1336	0.7516
1327	0.2963
1318	0.3595
1309	0.4867
1300	0.6519
1291	0.7543
1282	0.818
1273	0.8394
1264	0.8511
1255	0.8589
1246	0.7985
1237	0.7345
1228	0.829
1219	0.8278
1210	0.8176
1201	0.8543
1192	0.8745
1183	0.8746
1174	0.7997
1165	0.8367
1156	0.8712
1147	0.8743
1138	0.8835
1129	0.8861
1120	0.8647
1111	0.872
1102	0.883
1093	0.8767
1084	0.8746
1075	0.8628
1066	0.8408
1057	0.8591
1048	0.8687
1039	0.8668
1030	0.8487
1021	0.8532
1012	0.8626
1003	0.8636
994	0.8632
985	0.8601
976	0.8449
967	0.8018
958	0.6678
949	0.6163
940	0.4002
931	0.2198
922	0.3871
913	0.6468
904	0.7712
895	0.8121
886	0.8422
877	0.7651
868	0.7867
859	0.8378
850	0.8429
841	0.8522
832	0.8645
823	0.8637
814	0.8415
805	0.7827
796	0.4023
787	0.7053
778	0.7566
769	0.7244
760	0.5418
751	0.0296
742	0.2685
733	0.6902
724	0.7512
715	0.7602
706	0.6995
697	0.4509
688	0.0221
679	0.1511
670	0.5355
661	0.7159
652	0.8051
643	0.8379
634	0.8391
625	0.8275
616	0.8681
607	0.8989
598	0.9167
589	0.9236
580	0.9136
571	0.9242
562	0.8694
553	0.8566
544	0.9081
535	0.9247
526	0.9297
517	0.9331
508	0.9362
499	0.9355
490	0.9315
481	0.9259
472	0.9219
463	0.9163
454	0.9083
