Infrared Spectrum: Ethane, 1,2-dibromo-
Formula: C2 H4 Br2
CAS: 106-93-4
State: GAS (10 mmHg, N2 ADDED, TOTAL PRESSURE 600 mmHg)
Class: COBLENTZ
Instrument: DOW KBr FOREPRISM-GRATING
Instrument parameters: GRATING CHANGED AT 5.0, 7.5, 15.0 MICRON
Sampling: TRANSMISSION
Path length: 5 CM
Resolution: 2
Origin: DOW CHEMICAL COMPANY
1/CM	TRANSMITTANCE
456	0.8637
465	0.8657
474	0.8655
483	0.865
492	0.8643
501	0.8635
510	0.8627
519	0.8624
528	0.8624
537	0.8621
546	0.8613
555	0.8624
564	0.8636
573	0.8618
582	0.8578
591	0.8002
600	0.4217
609	0.5448
618	0.8753
627	0.8769
636	0.8739
645	0.845
654	0.8422
663	0.86
672	0.8767
681	0.8767
690	0.8764
699	0.8759
708	0.8756
717	0.8744
726	0.873
735	0.8713
744	0.869
753	0.8694
762	0.8704
771	0.8678
780	0.8636
789	0.8644
798	0.8694
807	0.8729
816	0.8731
825	0.8672
834	0.8583
843	0.8598
852	0.8728
861	0.8782
870	0.8786
879	0.8785
888	0.8758
897	0.8757
906	0.878
915	0.8813
924	0.8813
933	0.8807
942	0.8822
951	0.8912
960	0.8933
969	0.8947
978	0.8914
987	0.8909
996	0.891
1005	0.8901
1014	0.8931
1023	0.8935
1032	0.8914
1041	0.8942
1050	0.8904
1059	0.8867
1068	0.881
1077	0.8768
1086	0.8816
1095	0.8878
1104	0.8894
1113	0.8909
1122	0.8935
1131	0.8912
1140	0.8869
1149	0.8877
1158	0.8844
1167	0.8744
1176	0.8489
1185	0.5397
1194	0.7766
1203	0.8656
1212	0.8867
1221	0.8939
1230	0.8991
1239	0.8862
1248	0.8423
1257	0.84
1266	0.8732
1275	0.8739
1284	0.8697
1293	0.8694
1302	0.8753
1311	0.8746
1320	0.8738
1329	0.8735
1338	0.8624
1347	0.8665
1356	0.8778
1365	0.8727
1374	0.8619
1383	0.8579
1392	0.8521
1401	0.8545
1410	0.8566
1419	0.8456
1428	0.8372
1437	0.8302
1446	0.8222
1455	0.8033
1464	0.8393
1473	0.834
1482	0.8487
1491	0.8475
1500	0.8451
1509	0.8292
1518	0.8468
1527	0.8467
1536	0.8537
1545	0.8432
1554	0.8419
1563	0.8539
1572	0.8593
1581	0.8605
1590	0.8621
1599	0.8612
1608	0.8606
1617	0.8433
1626	0.8546
1635	0.8365
1644	0.8537
1653	0.8136
1662	0.8526
1671	0.8435
1680	0.8534
1689	0.8596
1698	0.8163
1707	0.8583
1716	0.8329
1725	0.8581
1734	0.8405
1743	0.857
1752	0.8515
1761	0.8501
1770	0.8392
1779	0.8551
1788	0.8516
1797	0.8559
1806	0.8548
1815	0.8567
1824	0.8536
1833	0.8518
1842	0.8439
1851	0.8532
1860	0.8528
1869	0.8558
1878	0.8574
1887	0.8542
1896	0.8573
1905	0.8574
1914	0.8537
1923	0.8584
1932	0.8571
1941	0.8565
1950	0.8592
1959	0.8584
1968	0.8581
1977	0.8586
1986	0.8581
1995	0.8575
2004	0.852
2013	0.8517
2022	0.8536
2031	0.8512
2040	0.8504
2049	0.8579
2058	0.8584
2067	0.8584
2076	0.8584
2085	0.8581
2094	0.858
2103	0.8579
2112	0.8578
2121	0.8577
2130	0.858
2139	0.8583
2148	0.8588
2157	0.8591
2166	0.8595
2175	0.8599
2184	0.8604
2193	0.8608
2202	0.8613
2211	0.8617
2220	0.8619
2229	0.8621
2238	0.8624
2247	0.8627
2256	0.8631
2265	0.8635
2274	0.8639
2283	0.8642
2292	0.8647
2301	0.8652
2310	0.8657
2319	0.8659
2328	0.8656
2337	0.8657
2346	0.8681
2355	0.8711
2364	0.8711
2373	0.8699
2382	0.8685
2391	0.868
2400	0.8674
2409	0.8668
2418	0.8663
2427	0.8658
2436	0.8663
2445	0.8675
2454	0.8692
2463	0.8698
2472	0.87
2481	0.8699
2490	0.8698
2499	0.8697
2508	0.8696
2517	0.8694
2526	0.8693
2535	0.8691
2544	0.8689
2553	0.8687
2562	0.8689
2571	0.8695
2580	0.8701
2589	0.8707
2598	0.8713
2607	0.8717
2616	0.869
2625	0.8661
2634	0.8652
2643	0.8694
2652	0.8718
2661	0.8724
2670	0.873
2679	0.8734
2688	0.8734
2697	0.8734
2706	0.8737
2715	0.8739
2724	0.8742
2733	0.8738
2742	0.8734
2751	0.873
2760	0.8727
2769	0.8722
2778	0.8719
2787	0.8715
2796	0.8712
2805	0.8712
2814	0.8715
2823	0.8727
2832	0.8761
2841	0.8842
2850	0.8844
2859	0.8765
2868	0.8701
2877	0.8707
2886	0.8779
2895	0.8812
2904	0.8916
2913	0.8907
2922	0.8839
2931	0.8756
2940	0.8714
2949	0.8663
2958	0.8603
2967	0.8585
2976	0.8551
2985	0.8357
2994	0.8318
3003	0.8456
3012	0.8611
3021	0.8632
3030	0.8651
3039	0.8665
3048	0.8668
3057	0.8681
3066	0.8693
3075	0.8696
3084	0.87
3093	0.8702
3102	0.8704
3111	0.8711
3120	0.8717
3129	0.8722
3138	0.8728
3147	0.8728
3156	0.8727
3165	0.8723
3174	0.8717
3183	0.8702
3192	0.869
3201	0.8706
3210	0.8745
3219	0.8773
3228	0.8775
3237	0.8763
3246	0.8743
3255	0.8755
3264	0.8789
3273	0.8803
3282	0.8806
3291	0.8796
3300	0.8784
3309	0.8785
3318	0.8787
3327	0.8785
3336	0.8782
3345	0.8782
3354	0.8787
3363	0.879
3372	0.8798
3381	0.8806
3390	0.8815
3399	0.8823
3408	0.883
3417	0.8835
3426	0.8832
3435	0.8829
3444	0.8827
3453	0.8826
3462	0.8825
3471	0.8824
3480	0.8828
3489	0.883
3498	0.8826
3507	0.8813
3516	0.88
3525	0.8796
3534	0.8794
3543	0.8794
3552	0.8794
3561	0.879
3570	0.8783
3579	0.8768
3588	0.874
3597	0.8704
3606	0.8701
3615	0.8775
3624	0.8732
3633	0.8714
3642	0.8755
3651	0.8679
3660	0.8732
3669	0.8701
3678	0.8707
3687	0.8735
3696	0.8737
3705	0.8726
3714	0.871
3723	0.8692
3732	0.8751
3741	0.8787
3750	0.8804
3759	0.8811
3768	0.8818
3777	0.8823
3786	0.8821
3795	0.882
