Infrared Spectrum: Ethane, 1,2-dibromo-
Formula: C 2 H 4 Br 2
CAS: 106-93-4
State: gas
Origin: Sadtler Research Labs Under US-EPA Contract
1/CM	ABSORBANCE
450	0.00179731
462	0.00645398
474	0.0180548
486	0.00980352
498	0.00383971
510	0.0133164
522	0.0107839
534	0.00914995
546	0.0169111
558	0.0246722
570	0.0431355
582	0.174176
594	0.694171
606	0.493852
618	0.0107022
630	0.00890486
642	0.0147053
654	0.012908
666	0.0081696
678	0.00833299
690	0.0106205
702	0.0106205
714	0.0119276
726	0.0128263
738	0.0191169
750	0.0191986
762	0.0187901
774	0.022303
786	0.0262244
798	0.0254075
810	0.0170745
822	0.01397
834	0.0445243
846	0.0531024
858	0.0211593
870	0.0172379
882	0.0167477
894	0.0178097
906	0.0169928
918	0.0126629
930	0.00923165
942	0.00710755
954	0.00751603
966	0.00882317
978	0.00702586
990	0.00710755
1002	0.00882317
1014	0.00980352
1026	0.00980352
1038	0.00914995
1050	0.0116008
1062	0.0140517
1074	0.0163392
1086	0.0191169
1098	0.0182182
1110	0.0169928
1122	0.0141334
1134	0.0143785
1146	0.0191169
1158	0.0241003
1170	0.0445243
1182	0.460275
1194	0.525387
1206	0.0434623
1218	0.0258159
1230	0.0246722
1242	0.0816143
1254	0.164781
1266	0.0660104
1278	0.0358645
1290	0.0320248
1302	0.0156039
1314	0.00882317
1326	0.0105388
1338	0.00923165
1350	0.00988522
1362	0.00972182
1374	0.00947674
1386	0.00857808
1398	0.0107022
1410	0.0200972
1422	0.0409297
1434	0.0557984
1446	0.0625791
1458	0.0533475
1470	0.0265512
1482	0.0169111
1494	0.0109473
1506	0.00759773
1518	0.00506515
1530	0.00506515
1542	0.00833299
1554	0.0060455
1566	0.00522854
1578	0.00482006
1590	0.0060455
1602	0.00571872
1614	0.00465667
1626	0.00522854
1638	0.00759773
1650	0.00498346
1662	0.00392141
1674	0.00555533
1686	0.0062089
1698	0.00531024
1710	0.00424819
1722	0.00531024
1734	0.00457498
1746	0.00424819
1758	0.00441158
1770	0.0040848
1782	0.00482006
1794	0.00498346
1806	0.00457498
1818	0.00465667
1830	0.00506515
1842	0.00514685
1854	0.00653568
1866	0.00547363
1878	0.0040848
1890	0.00383971
1902	0.0041665
1914	0.00383971
1926	0.00367632
1938	0.00367632
1950	0.0040848
1962	0.0040848
1974	0.00351293
1986	0.0040031
1998	0.00482006
2010	0.00555533
2022	0.00563702
2034	0.00498346
2046	0.00424819
2058	0.00367632
2070	0.00351293
2082	0.00375802
2094	0.0040848
2106	0.00392141
2118	0.00392141
2130	0.0040031
2142	0.0040848
2154	0.0040848
2166	0.0040848
2178	0.00514685
2190	0.00490176
2202	0.0040848
2214	0.00432989
2226	0.00424819
2238	0.0040031
2250	0.00383971
2262	0.00432989
2274	0.0040031
2286	0.00351293
2298	0.00351293
2310	0.0040848
2322	0.00522854
2334	0.00351293
2346	0.00539194
2358	0.00351293
2370	0.00187901
2382	0.00375802
2394	0.00449328
2406	0.00457498
2418	0.00457498
2430	0.00571872
2442	0.00686246
2454	0.00457498
2466	0.00318614
2478	0.00245088
2490	0.00277766
2502	0.00261427
2514	0.00220579
2526	0.00253258
2538	0.00253258
2550	0.0020424
2562	0.00179731
2574	0.00187901
2586	0.00171562
2598	0.0019607
2610	0.00179731
2622	0.00302275
2634	0.00351293
2646	0.0021241
2658	0.00163392
2670	0.00285936
2682	0.00326784
2694	0.00343123
2706	0.00645398
2718	0.00318614
2730	0.00081696
2742	0.00081696
2754	0.000898656
2766	0.00106205
2778	0.000571872
2790	0.000245088
2802	0.00179731
2814	0.00220579
2826	0.00179731
2838	0.0040031
2850	0.00531024
2862	0.00457498
2874	0.0107839
2886	0.0100486
2898	0.0040031
2910	0.00343123
2922	0.00302275
2934	0.00637229
2946	0.0160941
2958	0.0330052
2970	0.0368449
2982	0.0369266
2994	0.0545729
3006	0.030636
3018	0.0151138
3030	0.0130714
3042	0.00727094
3054	0.00465667
3066	0.00506515
3078	0.00392141
3090	0.00228749
3102	0.0020424
3114	0.00269597
3126	0.00245088
3138	0.00106205
3150	0.00163392
3162	0.00318614
3174	0.0019607
3186	0.00147053
3198	0.00253258
3210	0.00285936
3222	0.00114374
3234	0.00081696
3246	0.0021241
3258	0.00326784
3270	0.00106205
3282	0.00130714
3294	0.0020424
3306	0.00130714
3318	0.00187901
3330	0.00147053
3342	0.00334954
3354	0.0021241
3366	0.000898656
3378	0.00122544
3390	0.00228749
3402	0.00114374
3414	0.000735264
3426	0.00236918
3438	0.0020424
3450	0.000571872
3462	0.00228749
3474	0.00294106
3486	0.00245088
3498	0.00114374
3510	0.00163392
3522	0.0021241
3534	0.00147053
3546	0.00179731
3558	0.0019607
3570	0.00310445
3582	0.00277766
3594	0.00432989
3606	0.00236918
3618	0.00424819
3630	0.00261427
3642	0.0040031
3654	0.00914995
3666	0.00343123
3678	0.00767942
3690	0.00261427
3702	0.00522854
3714	0.00285936
3726	0.00294106
3738	0.00718925
3750	0.00539194
3762	0.00351293
3774	0.00555533
3786	0.00629059
3798	0.00465667
3810	0.00343123
3822	0.00498346
3834	0.00743434
3846	0.00465667
3858	0.00506515
3870	0.00498346
3882	0.00669907
3894	0.00522854
3906	0.00310445
3918	0.00514685
3930	0.0040848
3942	0.00490176
3954	0.00743434
3966	0.00988522
