Infrared Spectrum: Cyclopentane, bromo-
Formula: C 5 H 9 Br
CAS: 137-43-9
State: gas
Origin: Sadtler Research Labs Under US-EPA Contract
1/CM	ABSORBANCE
450	0.0144009
462	0.0103347
474	0.0107583
486	0.0174505
498	0.0225331
510	0.0473534
522	0.0621779
534	0.0335456
546	0.0191447
558	0.0236344
570	0.0160951
582	0.0138079
594	0.0199071
606	0.0177046
618	0.01906
630	0.0211777
642	0.0159257
654	0.0149091
666	0.0166881
678	0.0189753
690	0.0233802
702	0.0279546
714	0.041339
726	0.0349009
738	0.0263451
750	0.0232108
762	0.0193988
774	0.0221943
786	0.022279
798	0.0208389
810	0.0208389
822	0.0176199
834	0.0160951
846	0.0145703
858	0.0141467
870	0.0177893
882	0.0410001
894	0.0954693
906	0.113428
918	0.0599754
930	0.0337997
942	0.0258369
954	0.0170269
966	0.00609919
978	0.00254133
990	0.00118595
1002	0.00144009
1014	0.0130455
1026	0.0241426
1038	0.014655
1050	0.0061839
1062	0.00347315
1074	0.00296489
1086	0.0022872
1098	0.00321902
1110	0.00482853
1122	0.0101653
1134	0.0185517
1146	0.0192294
1158	0.0191447
1170	0.0279546
1182	0.0344774
1194	0.0425249
1206	0.0902172
1218	0.247017
1230	0.295387
1242	0.15841
1254	0.0814073
1266	0.0665828
1278	0.0678535
1290	0.0660746
1302	0.0526055
1314	0.0476923
1326	0.03956
1338	0.0193988
1350	0.00762399
1362	0.00499795
1374	0.00440497
1386	0.00567564
1398	0.00855581
1410	0.013469
1422	0.0301571
1434	0.0673452
1446	0.102585
1458	0.0974176
1470	0.0696324
1482	0.0459134
1494	0.0271922
1506	0.0138079
1518	0.00635332
1530	0.00355786
1542	0.00254133
1554	0.00203306
1566	0.00127067
1578	0.000762399
1590	0.00194835
1602	0.00186364
1614	0.00262604
1626	0.00135538
1638	0.00110124
1650	0.00220249
1662	8.4711e-05
1674	0.000592977
1686	0.000677688
1698	0.000592977
1710	0.000169422
1722	0.000677688
1734	0.00203306
1746	0.00118595
1758	0.00110124
1770	0.00160951
1782	0.00135538
1794	0.00160951
1806	0.00160951
1818	0.00110124
1830	0.00110124
1842	0.000508266
1854	0.000508266
1866	8.4711e-05
1878	0.00110124
1890	0.00101653
1902	0.0015248
1914	0.00186364
1926	0.00135538
1938	0.0022872
1950	0.00084711
1962	0.00084711
1974	0.000931821
1986	0.000762399
1998	0.00177893
2010	0.00084711
2022	0.00127067
2034	0.000423555
2046	0.000508266
2058	0.000762399
2070	0.000677688
2082	0.00118595
2094	0.00220249
2106	0.00194835
2118	0.00262604
2130	0.00211777
2142	0.00262604
2154	0.00279546
2166	0.0030496
2178	0.00254133
2190	0.00398142
2202	0.00347315
2214	0.00372728
2226	0.00296489
2238	0.00296489
2250	0.00296489
2262	0.00288017
2274	0.00211777
2286	0.00279546
2298	0.00245662
2310	0.00389671
2322	0.00423555
2334	0.00389671
2346	0.0054215
2358	0.00491324
2370	0.00101653
2382	0.00254133
2394	0.00203306
2406	0.00194835
2418	0.00203306
2430	0.00118595
2442	0.00084711
2454	0.00186364
2466	0.00118595
2478	0.00135538
2490	0.00084711
2502	0.00160951
2514	0.00127067
2526	0.00160951
2538	0.00203306
2550	0.00194835
2562	0.00203306
2574	0.00194835
2586	0.00127067
2598	0.00237191
2610	0.00245662
2622	0.0022872
2634	0.00118595
2646	0.00135538
2658	0.00084711
2670	0.00118595
2682	0.00084711
2694	0.00110124
2706	0.00160951
2718	0.0022872
2730	0.00288017
2742	0.00440497
2754	0.00389671
2766	0.00423555
2778	0.00533679
2790	0.00753928
2802	0.00974176
2814	0.0142314
2826	0.0219401
2838	0.0462522
2850	0.0954693
2862	0.153327
2874	0.220418
2886	0.28285
2898	0.276073
2910	0.262858
2922	0.289203
2934	0.324358
2946	0.39416
2958	0.57307
2970	0.819071
2982	0.80594
2994	0.506148
3006	0.243375
3018	0.105211
3030	0.046591
3042	0.0271922
3054	0.021686
3066	0.0189753
3078	0.0145703
3090	0.0105042
3102	0.00669217
3114	0.00474382
3126	0.00347315
3138	0.00465911
3150	0.00313431
3162	0.00237191
3174	0.00347315
3186	0.00321902
3198	0.00364257
3210	0.00423555
3222	0.00296489
3234	0.00271075
3246	0.00254133
3258	0.00279546
3270	0.00211777
3282	0.00271075
3294	0.00245662
3306	0.00194835
3318	0.00177893
3330	0.00186364
3342	0.00160951
3354	0.00177893
3366	0
3378	0.00101653
3390	0.000169422
3402	8.4711e-05
3414	0.000254133
3426	0.00211777
3438	0.00110124
3450	0.00296489
3462	0.00211777
3474	0.00406613
3486	0.00245662
3498	0.00262604
3510	0.00364257
3522	0.00398142
3534	0.00381199
3546	0.0030496
3558	0.0030496
3570	0.00389671
3582	0.00220249
3594	0.00415084
3606	0.00381199
3618	0.00372728
3630	0.00533679
3642	0.00576035
3654	0.00355786
3666	0.00338844
3678	0.00406613
3690	0.00559093
3702	0.00753928
3714	0.00652275
3726	0.00677688
3738	0.00643804
3750	0.00703101
3762	0.00686159
3774	0.00686159
3786	0.00728515
3798	0.00736986
3810	0.00669217
3822	0.00686159
3834	0.00745457
3846	0.00796283
3858	0.00796283
3870	0.0077087
3882	0.00711572
3894	0.00720043
3906	0.0084711
3918	0.00804754
3930	0.0077087
3942	0.00660746
3954	0.00728515
3966	0.00813226
