Infrared Spectrum: Bromocyclopentane
Formula: C5 H9 Br
CAS: 137-43-9
State: SOLUTION, FILTERED (CCl4 FOR 3800-1330, CS2 FOR 1330-400 CM^-^1)
Class: COBLENTZ III
Instrument: DOW KBr FOREPRISM-GRATING
Instrument parameters: BLAZED AT 3.5, 12.0, 20.0 MICRON AND CHANGED AT 5.0, 7.5, 14.9 MICRON
Sampling: TRANSMISSION
Path length: 0.011 CM, 0.011 CM
Resolution: 2
Origin: DOW CHEMICAL COMPANY
1/CM	TRANSMITTANCE
3778.8	0.8874
3769.84	0.8861
3760.88	0.8858
3751.92	0.8856
3742.96	0.8856
3734	0.8856
3725.04	0.8867
3716.08	0.8868
3707.12	0.8859
3698.16	0.8871
3689.2	0.887
3680.24	0.8865
3671.28	0.886
3662.32	0.8865
3653.36	0.8885
3644.4	0.8922
3635.44	0.8903
3626.48	0.8879
3617.52	0.8867
3608.56	0.8529
3599.6	0.8825
3590.64	0.8759
3581.68	0.8501
3572.72	0.8876
3563.76	0.8883
3554.8	0.8882
3545.84	0.8896
3536.88	0.8895
3527.92	0.8889
3518.96	0.888
3510	0.8881
3501.04	0.8881
3492.08	0.8881
3483.12	0.8884
3474.16	0.8887
3465.2	0.8889
3456.25	0.8892
3447.29	0.8893
3438.33	0.8893
3429.37	0.8894
3420.41	0.8893
3411.45	0.8891
3402.49	0.8913
3393.53	0.894
3384.57	0.8918
3375.61	0.8897
3366.65	0.8885
3357.69	0.8875
3348.73	0.8873
3339.77	0.8882
3330.81	0.8894
3321.85	0.889
3312.89	0.8887
3303.93	0.8894
3294.97	0.8879
3286.01	0.8872
3277.05	0.8868
3268.09	0.8862
3259.13	0.8855
3250.17	0.8856
3241.21	0.8852
3232.25	0.8855
3223.29	0.8852
3214.33	0.8857
3205.37	0.8859
3196.41	0.8857
3187.45	0.8865
3178.49	0.8857
3169.53	0.8854
3160.57	0.886
3151.61	0.8855
3142.65	0.8844
3133.69	0.8852
3124.73	0.8847
3115.77	0.8845
3106.81	0.8842
3097.85	0.8852
3088.89	0.8859
3079.93	0.8804
3070.97	0.879
3062.01	0.8704
3053.05	0.8646
3044.09	0.8564
3035.13	0.8419
3026.17	0.8148
3017.21	0.7881
3008.25	0.7448
2999.29	0.5622
2990.33	0.2308
2981.37	0.1447
2972.41	0.1399
2963.45	0.2016
2954.49	0.2664
2945.53	0.3438
2936.57	0.4216
2927.61	0.4484
2918.65	0.4535
2909.69	0.4525
2900.73	0.4829
2891.77	0.5424
2882.81	0.3803
2873.85	0.4927
2864.89	0.6169
2855.93	0.564
2846.97	0.641
2838.01	0.7899
2829.06	0.838
2820.1	0.8562
2811.14	0.8652
2802.18	0.874
2793.22	0.8788
2784.26	0.8826
2775.3	0.8871
2766.34	0.89
2757.38	0.8903
2748.42	0.8912
2739.46	0.8926
2730.5	0.894
2721.54	0.8954
2712.58	0.8966
2703.62	0.8978
2694.66	0.8994
2685.7	0.9008
2676.74	0.902
2667.78	0.9028
2658.82	0.9031
2649.86	0.9033
2640.9	0.9036
2631.94	0.9045
2622.98	0.9049
2614.02	0.9054
2605.06	0.9044
2596.1	0.9
2587.14	0.8996
2578.18	0.9021
2569.22	0.9038
2560.26	0.9042
2551.3	0.9045
2542.34	0.9051
2533.38	0.9055
2524.42	0.9061
2515.46	0.9066
2506.5	0.907
2497.54	0.9073
2488.58	0.9078
2479.62	0.909
2470.66	0.9088
2461.7	0.9088
2452.74	0.908
2443.78	0.9079
2434.82	0.907
2425.86	0.9063
2416.9	0.9062
2407.94	0.9067
2398.98	0.9067
2390.02	0.9071
2381.06	0.9022
2372.1	0.9067
2363.14	0.9083
2354.18	0.9133
2345.22	0.9119
2336.26	0.9114
2327.3	0.9138
2318.34	0.9103
2309.38	0.9063
2300.42	0.9032
2291.46	0.9023
2282.5	0.9003
2273.54	0.9011
2264.58	0.9036
2255.62	0.9067
2246.66	0.9071
2237.7	0.9077
2228.74	0.9073
2219.78	0.9067
2210.82	0.9071
2201.87	0.9083
2192.91	0.9089
2183.95	0.9095
2174.99	0.9105
2166.03	0.9095
2157.07	0.9095
2148.11	0.9094
2139.15	0.9093
2130.19	0.9092
2121.23	0.9088
2112.27	0.9092
2103.31	0.9107
2094.35	0.9114
2085.39	0.9137
2076.43	0.9146
2067.47	0.9152
2058.51	0.9157
2049.55	0.9165
2040.59	0.9155
2031.63	0.9153
2022.67	0.9161
2013.71	0.9158
2004.75	0.9157
1995.79	0.9058
1986.83	0.9038
1977.87	0.9018
1968.91	0.9046
1959.95	0.9073
1950.99	0.9068
1942.03	0.9076
1933.07	0.9108
1924.11	0.9137
1915.15	0.9156
1906.19	0.9173
1897.23	0.9159
1888.27	0.9116
1879.31	0.9107
1870.35	0.9118
1861.39	0.9126
1852.43	0.9134
1843.47	0.9136
1834.51	0.9129
1825.55	0.9132
1816.59	0.9147
1807.63	0.9137
1798.67	0.9126
1789.71	0.9149
1780.75	0.9184
1771.79	0.9195
1762.83	0.9197
1753.87	0.9187
1744.91	0.9031
1735.95	0.8929
1726.99	0.8913
1718.03	0.8964
1709.07	0.9072
1700.11	0.9138
1691.15	0.919
1682.19	0.9214
1673.23	0.9232
1664.27	0.9245
1655.31	0.9258
1646.35	0.9251
1637.39	0.9249
1628.43	0.92
1619.47	0.9124
1610.51	0.9099
1601.55	0.9022
1592.59	0.8788
1583.63	0.8103
1574.67	0.7977
1565.72	0.7743
1556.76	0.7524
1547.8	0.7231
1538.84	0.7509
1529.88	0.7702
1520.92	0.7994
1511.96	0.8231
1503	0.8342
1494.04	0.8582
1485.08	0.855
1476.12	0.8171
1467.16	0.8042
1458.2	0.769
1449.24	0.5878
1440.28	0.6339
1431.32	0.7553
1422.36	0.858
1413.4	0.878
1404.44	0.8882
1395.48	0.8964
1386.52	0.9057
1377.56	0.8975
1368.6	0.8982
1359.64	0.9029
1350.68	0.9071
1341.72	0.9064
1332.76	0.8916
1323.8	0.71
1314.84	0.6638
1305.88	0.7754
1296.92	0.7767
1287.96	0.723
1279	0.7172
1270.04	0.7429
1261.08	0.7596
1252.12	0.7621
1243.16	0.7213
1234.2	0.6052
1225.24	0.4637
1216.28	0.1948
1207.32	0.5694
1198.36	0.7391
1189.4	0.7794
1180.44	0.7966
1171.48	0.8142
1162.52	0.8289
1153.56	0.8483
1144.6	0.8604
1135.64	0.8498
1126.68	0.8393
1117.72	0.8627
1108.76	0.8864
1099.8	0.8996
1090.84	0.9054
1081.88	0.9099
1072.92	0.908
1063.96	0.8995
1055	0.8937
1046.04	0.906
1037.08	0.8927
1028.12	0.8518
1019.16	0.8489
1010.2	0.8945
1001.24	0.9139
992.284	0.9151
983.324	0.9218
974.364	0.9228
965.405	0.9224
956.445	0.9188
947.485	0.9051
938.525	0.8406
929.565	0.8222
920.605	0.8595
911.645	0.8379
902.686	0.5474
893.726	0.6896
884.766	0.8008
875.806	0.8547
866.846	0.8728
857.886	0.8622
848.926	0.8617
839.967	0.887
831.007	0.8987
822.047	0.9029
813.087	0.9007
804.127	0.8996
795.167	0.8987
786.207	0.9025
777.248	0.9085
768.288	0.9112
759.328	0.9082
750.368	0.8948
741.408	0.885
732.448	0.8738
723.488	0.8526
714.529	0.8307
705.569	0.8309
696.609	0.8399
687.649	0.8588
678.689	0.8775
669.729	0.8965
660.769	0.8942
651.81	0.8733
642.85	0.8738
633.89	0.8834
624.93	0.8985
615.97	0.9021
607.01	0.8996
598.05	0.8963
589.091	0.8931
580.131	0.8926
571.171	0.8974
562.211	0.9018
553.251	0.9038
544.291	0.901
535.331	0.8953
526.372	0.8508
517.412	0.6273
508.452	0.7873
499.492	0.8764
490.532	0.8912
481.572	0.8895
472.612	0.8801
463.653	0.8658
454.693	0.8497
445.733	0.8283
436.773	0.794
427.813	0.7407
418.853	0.6879
409.893	0.5001
400.934	0.1863
391.974	0.1329
