Infrared Spectrum: Ethylcyclopropane
Formula: C 5 H 10
CAS: 1191-96-4
State: gas
Instrument: HP-GC/MS/IRD
Origin: NIST Mass Spectrometry Data Center
1/CM	ABSORBANCE
550	0.000159
562	0.000279
574	0.000372
586	0.000393
598	0.000201
610	0.00027
622	0.00027
634	5.7e-05
646	6.3e-05
658	0.000234
670	0.000276
682	0.000249
694	0.000414
706	0.000555
718	0.001068
730	0.001698
742	0.002145
754	0.001929
766	0.001425
778	0.001128
790	0.001575
802	0.002673
814	0.003465
826	0.003276
838	0.002532
850	0.001614
862	0.00156
874	0.001971
886	0.002115
898	0.002685
910	0.00285
922	0.002787
934	0.002364
946	0.001254
958	0.000858
970	0.001056
982	0.001788
994	0.003588
1006	0.006828
1018	0.007524
1030	0.006606
1042	0.003063
1054	0.001602
1066	0.000993
1078	0.000774
1090	0.000732
1102	0.000669
1114	0.000549
1126	0.000486
1138	0.000483
1150	0.000513
1162	0.000636
1174	0.000687
1186	0.000726
1198	0.00066
1210	0.000702
1222	0.000645
1234	0.000597
1246	0.000639
1258	0.000723
1270	0.000906
1282	0.001059
1294	0.00192
1306	0.002598
1318	0.002598
1330	0.002049
1342	0.001041
1354	0.00108
1366	0.001488
1378	0.001887
1390	0.002103
1402	0.001806
1414	0.001746
1426	0.002304
1438	0.003273
1450	0.004461
1462	0.004821
1474	0.003975
1486	0.002607
1498	0.001461
1510	0.000813
1522	0.000534
1534	0.000429
1546	0.00036
1558	0.000471
1570	0.000336
1582	0.000315
1594	0.000315
1606	0.000333
1618	0.000411
1630	0.000426
1642	0.000447
1654	0.000522
1666	0.000381
1678	0.000357
1690	0.000303
1702	0.000393
1714	0.000372
1726	0.000336
1738	0.000423
1750	0.000456
1762	0.000537
1774	0.000633
1786	0.000513
1798	0.000474
1810	0.000438
1822	0.000432
1834	0.000378
1846	0.000378
1858	0.00039
1870	0.000369
1882	0.000354
1894	0.000447
1906	0.000567
1918	0.000696
1930	0.000693
1942	0.000573
1954	0.000414
1966	0.000345
1978	0.000264
1990	0.000252
2002	0.000258
2014	0.000309
2026	0.000447
2038	0.000606
2050	0.000717
2062	0.000684
2074	0.000627
2086	0.000456
2098	0.00039
2110	0.00024
2122	0.000225
2134	0.000252
2146	0.000201
2158	0.000183
2170	0.000165
2182	0.000177
2194	0.000189
2206	0.000234
2218	0.000198
2230	0.000168
2242	0.000171
2254	0.000159
2266	0.000159
2278	0.000144
2290	0.000117
2302	8.7e-05
2314	8.4e-05
2326	8.7e-05
2338	0.000123
2350	0.000114
2362	0.000168
2374	0.000105
2386	0.000126
2398	0.000171
2410	0.000159
2422	0.00012
2434	0.000132
2446	0.000195
2458	0.000246
2470	0.000249
2482	0.000222
2494	0.00015
2506	7.5e-05
2518	3e-05
2530	1.8e-05
2542	8.4e-05
2554	3.6e-05
2566	9.9e-05
2578	0.000138
2590	9.6e-05
2602	0.000165
2614	0.000201
2626	0.000198
2638	0.000198
2650	0.000192
2662	0.000168
2674	0.000147
2686	0.000147
2698	0.000147
2710	0.000252
2722	0.000342
2734	0.000516
2746	0.000687
2758	0.000666
2770	0.000705
2782	0.000705
2794	0.000744
2806	0.001044
2818	0.001572
2830	0.002688
2842	0.004329
2854	0.007089
2866	0.010374
2878	0.013539
2890	0.015174
2902	0.01698
2914	0.01839
2926	0.021198
2938	0.022548
2950	0.025104
2962	0.029691
2974	0.028101
2986	0.026784
2998	0.02253
3010	0.020682
3022	0.016881
3034	0.011058
3046	0.007104
3058	0.007113
3070	0.010329
3082	0.013371
3094	0.010371
3106	0.006093
3118	0.002808
3130	0.001374
3142	0.00081
3154	0.000678
3166	0.00063
3178	0.000537
3190	0.000474
3202	0.000366
3214	0.000261
3226	0.000201
3238	9e-05
3250	9.9e-05
3262	6.6e-05
3274	0.000126
3286	6.9e-05
3298	0.000117
3310	9e-06
3322	2.7e-05
3334	5.1e-05
3346	2.7e-05
3358	6.3e-05
3370	3.3e-05
3382	3.6e-05
3394	4.8e-05
3406	0.000105
3418	9.6e-05
3430	5.7e-05
3442	0.000126
3454	0.000117
3466	7.2e-05
3478	8.4e-05
3490	0
3502	0.000105
3514	0.000108
3526	9.3e-05
3538	8.1e-05
3550	3e-05
3562	2.1e-05
3574	4.5e-05
3586	6.6e-05
3598	9.6e-05
3610	1.8e-05
3622	3e-05
3634	2.7e-05
3646	9e-05
3658	8.7e-05
3670	0.000159
3682	8.4e-05
3694	5.7e-05
3706	0.00012
3718	0.000117
3730	0.000102
3742	0.000153
3754	0.00018
3766	0.000105
3778	0.000129
3790	0.000147
3802	0.000222
3814	0.000255
3826	0.000192
3838	0.000255
