Infrared Spectrum: OXIRANE, 2-ETHENYL-
Formula: C4 H6 O
CAS: 930-22-3
State: GAS (100 mmHg, N2 ADDED, TOTAL PRESSURE 600 mmHg)
Class: COBLENTZ
Instrument: DOW KBr FOREPRISM-GRATING
Instrument parameters: GRATING CHANGED AT 5.0, 7.5, 15.0 MICRON
Sampling: TRANSMISSION
Path length: 5 CM
Resolution: 2
Origin: DOW CHEMICAL COMPANY
1/CM	TRANSMITTANCE
463.438	0.989
471.876	0.997
480.313	1.002
488.751	1.007
497.188	1.007
505.626	1.002
514.063	1.001
522.501	0.994
530.938	0.995
539.376	0.991
547.813	0.989
556.251	0.989
564.688	0.988
573.126	0.965
581.563	0.902
590.001	0.888
598.438	0.895
606.876	0.908
615.314	0.986
623.751	0.991
632.189	0.972
640.626	0.922
649.064	0.863
657.501	0.783
665.939	0.633
674.376	0.645
682.814	0.62
691.251	0.844
699.689	0.927
708.126	0.96
716.564	0.982
725.001	0.989
733.439	0.985
741.876	0.966
750.314	0.933
758.752	0.89
767.189	0.816
775.627	0.735
784.064	0.731
792.502	0.648
800.939	0.508
809.377	0.2832
817.814	0.2
826.252	0.223
834.689	0.244
843.127	0.3749
851.564	0.546
860.002	0.656
868.439	0.825
876.877	0.843
885.315	0.77
893.752	0.4981
902.19	0.273
910.627	0.09
919.065	0.05
927.502	0.049
935.94	0.063
944.377	0.125
952.815	0.318
961.252	0.376
969.69	0.364
978.127	0.264
986.565	0.3019
995.002	0.367
1003.44	0.478
1011.88	0.601
1020.31	0.709
1028.75	0.792
1037.19	0.851
1045.63	0.905
1054.07	0.946
1062.5	0.956
1070.94	0.94
1079.38	0.915
1087.82	0.908
1096.25	0.909
1104.69	0.924
1113.13	0.917
1121.57	0.888
1130	0.857
1138.44	0.84
1146.88	0.845
1155.32	0.888
1163.75	0.914
1172.19	0.947
1180.63	0.962
1189.07	0.972
1197.5	0.969
1205.94	0.962
1214.38	0.944
1222.82	0.886
1231.25	0.824
1239.69	0.731
1248.13	0.678
1256.57	0.674
1265	0.723
1273.44	0.783
1281.88	0.822
1290.32	0.844
1298.75	0.873
1307.19	0.915
1315.63	0.936
1324.07	0.928
1332.5	0.895
1340.94	0.799
1349.38	0.771
1357.82	0.71
1366.25	0.793
1374.69	0.861
1383.13	0.876
1391.57	0.869
1400	0.872
1408.44	0.828
1416.88	0.8
1425.32	0.712
1433.75	0.508
1442.19	0.507
1450.63	0.549
1459.07	0.6491
1467.5	0.844
1475.94	0.841
1484.38	0.832
1492.82	0.834
1501.25	0.866
1509.69	0.893
1518.13	0.943
1526.57	0.968
1535	0.978
1543.44	0.976
1551.88	0.981
1560.32	0.97
1568.75	0.968
1577.19	0.944
1585.63	0.918
1594.07	0.909
1602.5	0.893
1610.94	0.895
1619.38	0.882
1627.82	0.837
1636.25	0.767
1644.69	0.702
1653.13	0.728
1661.57	0.693
1670	0.869
1678.44	0.954
1686.88	0.965
1695.32	0.97
1703.75	0.947
1712.19	0.904
1720.63	0.901
1729.07	0.909
1737.51	0.941
1745.94	0.949
1754.38	0.96
1762.82	0.968
1771.26	0.972
1779.69	0.981
1788.13	0.985
1796.57	0.985
1805.01	0.985
1813.44	0.981
1821.88	0.972
1830.32	0.909
1838.76	0.784
1847.19	0.792
1855.63	0.752
1864.07	0.889
1872.51	0.936
1880.94	0.95
1889.38	0.963
1897.82	0.972
1906.26	0.975
1914.69	0.975
1923.13	0.973
1931.57	0.969
1940.01	0.963
1948.44	0.96
1956.88	0.953
1965.32	0.959
1973.76	0.969
1982.19	0.981
1990.63	0.986
1999.07	0.991
2007.51	0.991
2015.94	0.991
2024.38	0.989
2032.82	0.9855
2041.26	0.9781
2049.69	0.9741
2058.13	0.969
2066.57	0.97
2075.01	0.9749
2083.44	0.982
2091.88	0.984
2100.32	0.986
2108.76	0.986
2117.19	0.986
2125.63	0.986
2134.07	0.985
2142.51	0.984
2150.94	0.981
2159.38	0.9751
2167.82	0.973
2176.26	0.973
2184.69	0.975
2193.13	0.976
2201.57	0.981
2210.01	0.979
2218.44	0.976
2226.88	0.973
2235.32	0.9726
2243.76	0.9653
2252.19	0.9526
2260.63	0.9443
2269.07	0.94
2277.51	0.9469
2285.94	0.9581
2294.38	0.9717
2302.82	0.978
2311.26	0.984
2319.69	0.988
2328.13	0.989
2336.57	0.994
2345.01	0.994
2353.44	0.991
2361.88	0.989
2370.32	0.991
2378.76	0.9936
2387.19	0.994
2395.63	0.9924
2404.07	0.989
2412.51	0.9882
2420.95	0.9853
2429.38	0.9888
2437.82	0.991
2446.26	0.991
2454.7	0.991
2463.13	0.989
2471.57	0.985
2480.01	0.984
2488.45	0.9853
2496.88	0.9905
2505.32	0.992
2513.76	0.994
2522.2	0.994
2530.63	0.9925
2539.07	0.992
2547.51	0.992
2555.95	0.992
2564.38	0.991
2572.82	0.988
2581.26	0.986
2589.7	0.9836
2598.13	0.982
2606.57	0.981
2615.01	0.982
2623.45	0.9842
2631.88	0.9887
2640.32	0.9924
2648.76	0.995
2657.2	0.997
2665.63	0.997
2674.07	0.995
2682.51	0.9926
2690.95	0.991
2699.38	0.9897
2707.82	0.986
2716.26	0.985
2724.7	0.982
2733.13	0.979
2741.57	0.9759
2750.01	0.9737
2758.45	0.972
2766.88	0.972
2775.32	0.972
2783.76	0.9742
2792.2	0.976
2800.63	0.976
2809.07	0.978
2817.51	0.976
2825.95	0.9748
2834.38	0.973
2842.82	0.972
2851.26	0.9708
2859.7	0.9617
2868.13	0.9494
2876.57	0.933
2885.01	0.9171
2893.45	0.8871
2901.88	0.8353
2910.32	0.7297
2918.76	0.6204
2927.2	0.5421
2935.63	0.5365
2944.07	0.5792
2952.51	0.6235
2960.95	0.6376
2969.38	0.5668
2977.82	0.4685
2986.26	0.3048
2994.7	0.2184
3003.13	0.1336
3011.57	0.125
3020.01	0.1582
3028.45	0.2421
3036.88	0.2179
3045.32	0.178
3053.76	0.164
3062.2	0.1999
3070.63	0.3068
3079.07	0.4326
3087.51	0.5412
3095.95	0.5002
3104.38	0.4734
3112.82	0.5232
3121.26	0.6516
3129.7	0.8548
3138.14	0.9378
3146.57	0.9588
3155.01	0.9769
3163.45	0.982
3171.89	0.985
3180.32	0.985
3188.76	0.985
3197.2	0.986
3205.64	0.986
3214.07	0.988
3222.51	0.9898
3230.95	0.991
3239.39	0.991
3247.82	0.991
3256.26	0.991
3264.7	0.991
3273.14	0.991
3281.57	0.989
3290.01	0.989
3298.45	0.991
3306.89	0.992
3315.32	0.994
3323.76	0.994
3332.2	0.992
3340.64	0.991
3349.07	0.991
3357.51	0.991
3365.95	0.991
3374.39	0.991
3382.82	0.991
3391.26	0.991
3399.7	0.991
3408.14	0.991
3416.57	0.991
3425.01	0.991
3433.45	0.991
3441.89	0.991
3450.32	0.991
3458.76	0.991
3467.2	0.991
3475.64	0.992
3484.07	0.9912
3492.51	0.991
3500.95	0.992
3509.39	0.994
3517.82	0.994
3526.26	0.994
3534.7	0.994
3543.14	0.994
3551.57	0.9925
3560.01	0.991
3568.45	0.991
3576.89	0.989
3585.32	0.986
3593.76	0.986
3602.2	0.986
3610.64	0.988
3619.07	0.989
3627.51	0.991
3635.95	0.992
3644.39	0.992
3652.82	0.992
3661.26	0.988
3669.7	0.992
3678.14	0.992
3686.57	0.9904
3695.01	0.997
3703.45	0.998
3711.89	0.995
3720.32	0.995
3728.76	0.991
3737.2	0.989
3745.64	0.992
3754.07	0.991
3762.51	0.989
3770.95	0.988
3779.39	0.9859
3787.82	0.9859
3796.26	0.989
3804.7	0.989
