Infrared Spectrum: N-VALERONITRILE
Formula: C5 H9 N
CAS: 110-59-8
State: LIQUID
Boiling point: 139-141 C
Class: COBLENTZ
Instrument: Not specified, most likely a prism, grating, or hybrid spectrometer.
Sampling: TRANSMISSION
Path length: 0.005 CM
Resolution: 4
Origin: WYANDOTTE CHEMICALS CORP., WYANDOTTE, MICHIGAN, USA
MICROMETERS	TRANSMITTANCE
2.061	0.977
2.10186	0.967
2.14271	0.965
2.18357	0.911
2.22442	0.787
2.26528	0.799
2.30614	0.828
2.34699	0.852
2.38785	0.838
2.4287	0.852
2.46956	0.877
2.51042	0.906
2.55127	0.921
2.59213	0.918
2.63298	0.916
2.67384	0.906
2.7147	0.857
2.75555	0.848
2.79641	0.835
2.83726	0.816
2.87812	0.835
2.91898	0.845
2.95983	0.86
3.00069	0.843
3.04154	0.835
3.0824	0.814
3.12326	0.763
3.16411	0.715
3.20497	0.731
3.24582	0.666
3.28668	0.54
3.32754	0.122
3.36839	0.03
3.40925	0.034
3.4501	0.039
3.49096	0.059
3.53182	0.289
3.57267	0.551
3.61353	0.664
3.65438	0.663
3.69524	0.751
3.7361	0.738
3.77695	0.738
3.81781	0.77
3.85866	0.801
3.89952	0.812
3.94038	0.818
3.98123	0.824
4.02209	0.829
4.06294	0.845
4.1038	0.853
4.14466	0.821
4.18551	0.816
4.22637	0.816
4.26722	0.816
4.30808	0.816
4.34894	0.816
4.38979	0.816
4.43065	0.778
4.4715	0.636
4.51236	0.071
4.55322	0.348
4.59407	0.739
4.63493	0.801
4.67578	0.829
4.71664	0.819
4.75749	0.846
4.79835	0.867
4.83921	0.88
4.88006	0.87
4.92092	0.867
4.96177	0.85
5.00263	0.857
5.04349	0.865
5.08434	0.87
5.1252	0.867
5.16605	0.872
5.20691	0.872
5.24777	0.867
5.28862	0.87
5.32948	0.869
5.37033	0.862
5.41119	0.857
5.45205	0.85
5.4929	0.841
5.53376	0.841
5.57461	0.845
5.61547	0.843
5.65633	0.85
5.69718	0.836
5.73804	0.782
5.77889	0.76
5.81975	0.695
5.86061	0.666
5.90146	0.772
5.94232	0.787
5.98317	0.787
6.02403	0.78
6.06489	0.765
6.10574	0.746
6.1466	0.736
6.18745	0.75
6.22831	0.738
6.26917	0.743
6.31002	0.756
6.35088	0.758
6.39173	0.753
6.43259	0.739
6.47345	0.732
6.5143	0.71
6.55516	0.683
6.59601	0.63
6.63687	0.561
6.67773	0.482
6.71858	0.312
6.75944	0.098
6.80029	0.037
6.84115	0.045
6.88201	0.093
6.92286	0.132
6.96372	0.049
7.00457	0.086
7.04543	0.292
7.08629	0.406
7.12714	0.435
7.168	0.372
7.20885	0.163
7.24971	0.26
7.29057	0.413
7.33142	0.476
7.37228	0.443
7.41313	0.352
7.45399	0.491
7.49485	0.431
7.5357	0.382
7.57656	0.496
7.61741	0.53
7.65827	0.447
7.69913	0.503
7.73998	0.573
7.78084	0.602
7.82169	0.661
7.86255	0.681
7.90341	0.68
7.94426	0.627
7.98512	0.598
8.02597	0.602
8.06683	0.544
8.10769	0.624
8.14854	0.671
8.1894	0.676
8.23025	0.651
8.27111	0.624
8.31197	0.62
8.35282	0.687
8.39368	0.719
8.43453	0.739
8.47539	0.758
8.51625	0.765
8.5571	0.765
8.59796	0.763
8.63881	0.768
8.67967	0.765
8.72053	0.76
8.76138	0.751
8.80224	0.731
8.84309	0.719
8.88395	0.68
8.92481	0.571
8.96566	0.306
9.00652	0.358
9.04737	0.528
9.08823	0.636
9.12909	0.676
9.16994	0.687
9.2108	0.693
9.25165	0.692
9.29251	0.68
9.33337	0.673
9.37422	0.68
9.41508	0.705
9.45593	0.687
9.49679	0.7
9.53765	0.738
9.5785	0.748
9.61936	0.758
9.66021	0.76
9.70107	0.761
9.74193	0.763
9.78278	0.763
9.82364	0.758
9.86449	0.744
9.90535	0.714
9.9462	0.673
9.98706	0.688
10.0279	0.738
10.0688	0.751
10.1096	0.756
10.1505	0.751
10.1913	0.722
10.2322	0.69
10.2731	0.676
10.3139	0.683
10.3548	0.709
10.3956	0.727
10.4365	0.738
10.4773	0.736
10.5182	0.731
10.559	0.715
10.5999	0.695
10.6408	0.639
10.6816	0.528
10.7225	0.406
10.7633	0.312
10.8042	0.397
10.845	0.474
10.8859	0.498
10.9267	0.431
10.9676	0.433
11.0085	0.557
11.0493	0.644
11.0902	0.675
11.131	0.664
11.1719	0.59
11.2127	0.585
11.2536	0.663
11.2945	0.712
11.3353	0.727
11.3762	0.724
11.417	0.7
11.4579	0.719
11.4987	0.736
11.5396	0.748
11.5804	0.746
11.6213	0.75
11.6622	0.753
11.703	0.75
11.7439	0.75
11.7847	0.738
11.8256	0.734
11.8664	0.731
11.9073	0.721
11.9481	0.704
11.989	0.688
12.0299	0.646
12.0707	0.596
12.1116	0.515
12.1524	0.481
12.1933	0.51
12.2341	0.579
12.275	0.619
12.3159	0.619
12.3567	0.62
12.3976	0.63
12.4384	0.615
12.4793	0.588
12.5201	0.579
12.561	0.581
12.6018	0.579
12.6427	0.566
12.6836	0.547
12.7244	0.54
12.7653	0.525
12.8061	0.527
12.847	0.534
12.8878	0.559
12.9287	0.576
12.9695	0.579
13.0104	0.579
13.0513	0.571
13.0921	0.564
13.133	0.544
13.1738	0.522
13.2147	0.493
13.2555	0.455
13.2964	0.425
13.3373	0.387
13.3781	0.358
13.419	0.333
13.4598	0.304
13.5007	0.272
13.5415	0.258
13.5824	0.268
13.6232	0.299
13.6641	0.309
13.705	0.292
13.7458	0.326
13.7867	0.409
13.8275	0.51
13.8684	0.579
13.9092	0.624
13.9501	0.656
13.9909	0.671
14.0318	0.692
14.0727	0.698
14.1135	0.712
14.1544	0.721
14.1952	0.727
14.2361	0.731
14.2769	0.736
14.3178	0.738
14.3587	0.744
14.3995	0.748
14.4404	0.748
14.4812	0.748
14.5221	0.748
14.5629	0.748
14.6038	0.748
14.6446	0.743
14.6855	0.739
14.7264	0.748
14.7672	0.748
14.8081	0.748
14.8489	0.748
14.8898	0.739
14.9306	0.739
14.9715	0.739
15.0123	0.726
15.0532	0.709
15.0941	0.717
15.1349	0.729
15.1758	0.738
15.2166	0.729
15.2575	0.726
15.2983	0.719
15.3392	0.719
15.3801	0.717
15.4209	0.715
15.4618	0.71
15.5026	0.704
15.5435	0.697
15.5843	0.698
15.6252	0.697
15.666	0.69
15.7069	0.688
15.7478	0.68
15.7886	0.687
15.8295	0.676
15.8703	0.675
15.9112	0.671
15.952	0.666
15.9929	0.659
