Infrared Spectrum: 2-Pentyne
Formula: C 5 H 8
CAS: 627-21-4
State: gas
Instrument: HP-GC/MS/IRD
Origin: NIST Mass Spectrometry Data Center
1/CM	ABSORBANCE
550	0.0016368
562	0.0011649
574	0.001221
586	0.0010725
598	0.0010857
610	0.001056
622	0.0010263
634	0.0007788
646	0.0004686
658	0.000429
670	0.0003267
682	0.0001782
694	0.0001815
706	7.26e-05
718	0.0001617
730	0.000231
742	0.0002739
754	0.0002706
766	0.0002871
778	0.0003663
790	0.0003894
802	0.0004323
814	0.0003135
826	9.9e-05
838	0.0001023
850	0.0001452
862	9.24e-05
874	7.92e-05
886	1.65e-05
898	7.26e-05
910	0.0001023
922	0.0001254
934	0.000198
946	0.000165
958	0.0001551
970	2.97e-05
982	5.94e-05
994	0.0001221
1006	0.0001584
1018	0.000264
1030	0.0004587
1042	0.000693
1054	0.0011946
1066	0.0013431
1078	0.001254
1090	0.0008679
1102	0.0004587
1114	0.0002937
1126	0.00033
1138	0.0004653
1150	0.000429
1162	0.0004488
1174	0.0005379
1186	0.0005775
1198	0.0005082
1210	0.0005511
1222	0.000528
1234	0.0005643
1246	0.0006798
1258	0.0007128
1270	0.0008745
1282	0.0012441
1294	0.0024882
1306	0.0054054
1318	0.0084645
1330	0.0077154
1342	0.0047949
1354	0.0022902
1366	0.0026334
1378	0.0031911
1390	0.0030591
1402	0.0026961
1414	0.0030822
1426	0.0038709
1438	0.0043923
1450	0.0049863
1462	0.0053625
1474	0.0042141
1486	0.0033363
1498	0.0027852
1510	0.0021681
1522	0.0016764
1534	0.0014157
1546	0.0013233
1558	0.0011088
1570	0.0009141
1582	0.0008745
1594	0.0007062
1606	0.0006798
1618	0.0006402
1630	0.0005181
1642	0.0004356
1654	0.0003828
1666	0.0003036
1678	0.0002673
1690	0.0002145
1702	0.0002079
1714	0.0001782
1726	0.0001353
1738	0.0001551
1750	0.0001485
1762	0.0001254
1774	0.0001452
1786	9.9e-05
1798	8.25e-05
1810	0.0001056
1822	0.0001419
1834	0.0001551
1846	0.0002112
1858	0.0001881
1870	0.000165
1882	0.0001782
1894	0.0001485
1906	8.58e-05
1918	9.57e-05
1930	6.27e-05
1942	6.6e-05
1954	6.6e-05
1966	7.92e-05
1978	2.64e-05
1990	5.94e-05
2002	6.27e-05
2014	5.61e-05
2026	0.0001221
2038	0.0002871
2050	0.0003696
2062	0.0003366
2074	0.0001617
2086	9.9e-05
2098	8.58e-05
2110	7.59e-05
2122	5.94e-05
2134	5.94e-05
2146	8.25e-05
2158	6.27e-05
2170	5.61e-05
2182	5.61e-05
2194	6.27e-05
2206	4.62e-05
2218	7.92e-05
2230	0.0001386
2242	0.0001089
2254	4.62e-05
2266	3.63e-05
2278	3.96e-05
2290	3.3e-06
2302	6.6e-05
2314	9.9e-05
2326	0.0001782
2338	0.000165
2350	0.0001122
2362	0.0001188
2374	0.0001089
2386	0.000165
2398	0.0001584
2410	0.0001782
2422	0.0002145
2434	0.000231
2446	0.0001914
2458	0.0001617
2470	0.0001782
2482	0.0001485
2494	0.0001914
2506	0.000198
2518	0.0001782
2530	0.0001914
2542	0.0001155
2554	4.95e-05
2566	1.32e-05
2578	5.94e-05
2590	0.0001419
2602	0.0001221
2614	0.0001551
2626	0.0002145
2638	0.0002178
2650	0.0001353
2662	8.91e-05
2674	4.95e-05
2686	7.26e-05
2698	0.0002112
2710	0.0002673
2722	0.000462
2734	0.0008943
2746	0.001188
2758	0.0011814
2770	0.0007986
2782	0.0007458
2794	0.0008382
2806	0.0011352
2818	0.0017259
2830	0.0026565
2842	0.0041415
2854	0.0069663
2866	0.0106623
2878	0.0143484
2890	0.0150018
2902	0.0160182
2914	0.01848
2926	0.0280731
2938	0.031845
2950	0.0285813
2962	0.0232782
2974	0.0256839
2986	0.0252153
2998	0.0174537
3010	0.0107382
3022	0.0070653
3034	0.0050919
3046	0.003003
3058	0.0023001
3070	0.0016929
3082	0.0013134
3094	0.0012705
3106	0.0011187
3118	0.0011253
3130	0.0010659
3142	0.0009867
3154	0.0006732
3166	0.0005016
3178	0.0003102
3190	0.0002244
3202	0.000231
3214	0.0002376
3226	0.000264
3238	0.0002277
3250	0.0001188
3262	0.0001122
3274	0.0001518
3286	0.0001122
3298	9.9e-05
3310	0.0001419
3322	0.0001155
3334	0.0002145
3346	0.0001518
3358	0.0001947
3370	0.0001749
3382	0.0001287
3394	9.57e-05
3406	7.92e-05
3418	8.91e-05
3430	0.0001089
3442	0.0001749
3454	0.0002673
3466	0.0002343
3478	0.0002442
3490	0.0001155
3502	8.91e-05
3514	3.3e-05
3526	7.92e-05
3538	0.0001287
3550	7.26e-05
3562	0.0001155
3574	0.0001617
3586	0.0001221
3598	0.0001452
3610	0.0001518
3622	0.0001617
3634	0.0002145
3646	0.0002112
3658	0.0002211
3670	0.0002013
3682	0.000231
3694	0.0001848
3706	0.0001848
3718	0.0001617
3730	0.0002046
3742	0.0002079
3754	0.0002178
3766	0.0001254
3778	0.000198
3790	0.0001716
3802	0.0001947
3814	0.0002046
3826	0.0002079
3838	0.0002046
