Infrared Spectrum: 1,2,3,4-DIEPOXYBUTANE
Formula: C4 H6 O2
CAS: 1464-53-5
State: SOLUTION (10% CCl4 FOR 5000-1330, 10% CS2 FOR 1330-625 CM^-^1)
Class: COBLENTZ
Instrument: Not specified, most likely a prism, grating, or hybrid spectrometer.
Sampling: TRANSMISSION
Path length: 0.0123 CM, 0.0119 CM
Resolution: 4
Origin: DOW CHEMICAL COMPANY
MICROMETERS	TRANSMITTANCE
2.076	0.897
2.11035	0.892
2.14469	0.877
2.17904	0.846
2.21338	0.88
2.24773	0.88
2.28208	0.878
2.31642	0.872
2.35077	0.863
2.38511	0.87
2.41946	0.877
2.45381	0.882
2.48815	0.885
2.5225	0.885
2.55684	0.882
2.59119	0.872
2.62554	0.875
2.65988	0.877
2.69423	0.872
2.72857	0.866
2.76292	0.854
2.79726	0.831
2.83161	0.813
2.86596	0.841
2.9003	0.854
2.93465	0.872
2.96899	0.875
3.00334	0.887
3.03769	0.889
3.07203	0.889
3.10638	0.889
3.14072	0.885
3.17507	0.88
3.20942	0.849
3.24376	0.704
3.27811	0.532
3.31245	0.424
3.3468	0.43
3.38115	0.735
3.41549	0.616
3.44984	0.812
3.48418	0.844
3.51853	0.875
3.55288	0.885
3.58722	0.892
3.62157	0.895
3.65591	0.897
3.69026	0.901
3.72461	0.904
3.75895	0.904
3.7933	0.902
3.82764	0.902
3.86199	0.901
3.89633	0.901
3.93068	0.904
3.96503	0.906
3.99937	0.907
4.03372	0.909
4.06806	0.907
4.10241	0.909
4.13676	0.909
4.1711	0.909
4.20545	0.907
4.23979	0.902
4.27414	0.897
4.30849	0.882
4.34283	0.863
4.37718	0.851
4.41152	0.872
4.44587	0.88
4.48022	0.894
4.51456	0.894
4.54891	0.892
4.58325	0.899
4.6176	0.906
4.65195	0.904
4.68629	0.901
4.72064	0.902
4.75498	0.904
4.78933	0.911
4.82368	0.907
4.85802	0.904
4.89237	0.901
4.92671	0.904
4.96106	0.901
4.9954	0.892
5.02975	0.892
5.0641	0.911
5.09844	0.907
5.13279	0.912
5.16713	0.911
5.20148	0.911
5.23583	0.907
5.27017	0.911
5.30452	0.914
5.33886	0.916
5.37321	0.911
5.40756	0.907
5.4419	0.909
5.47625	0.901
5.51059	0.907
5.54494	0.912
5.57929	0.914
5.61363	0.921
5.64798	0.918
5.68232	0.921
5.71667	0.912
5.75102	0.904
5.78536	0.902
5.81971	0.902
5.85405	0.916
5.8884	0.916
5.92275	0.904
5.95709	0.904
5.99144	0.904
6.02578	0.899
6.06013	0.885
6.09448	0.87
6.12882	0.854
6.16317	0.807
6.19751	0.778
6.23186	0.745
6.2662	0.679
6.30055	0.641
6.3349	0.614
6.36924	0.575
6.40359	0.505
6.43793	0.477
6.47228	0.529
6.50663	0.592
6.54097	0.633
6.57532	0.68
6.60966	0.72
6.64401	0.759
6.67836	0.749
6.7127	0.677
6.74705	0.573
6.78139	0.692
6.81574	0.822
6.85009	0.827
6.88443	0.8
6.91878	0.715
6.95312	0.808
6.98747	0.854
7.02182	0.848
7.05616	0.853
7.09051	0.861
7.12485	0.854
7.1592	0.836
7.19355	0.764
7.22789	0.718
7.26224	0.793
7.29658	0.819
7.33093	0.825
7.36527	0.854
7.39962	0.868
7.43397	0.88
7.46831	0.875
7.50266	0.861
7.537	0.815
7.57135	0.72
7.6057	0.457
7.64004	0.568
7.67439	0.747
7.70873	0.8
7.74308	0.802
7.77743	0.8
7.81177	0.783
7.84612	0.766
7.88046	0.684
7.91481	0.61
7.94916	0.489
7.9835	0.5
8.01785	0.498
8.05219	0.426
8.08654	0.59
8.12089	0.728
8.15523	0.762
8.18958	0.784
8.22392	0.788
8.25827	0.793
8.29262	0.776
8.32696	0.745
8.36131	0.692
8.39565	0.706
8.43	0.762
8.46434	0.769
8.49869	0.779
8.53304	0.783
8.56738	0.776
8.60173	0.764
8.63607	0.728
8.67042	0.684
8.70477	0.65
8.73911	0.617
8.77346	0.585
8.8078	0.583
8.84215	0.593
8.8765	0.581
8.91084	0.605
8.94519	0.687
8.97953	0.72
9.01388	0.726
9.04823	0.728
9.08257	0.725
9.11692	0.73
9.15126	0.74
9.18561	0.742
9.21996	0.726
9.2543	0.687
9.28865	0.65
9.32299	0.648
9.35734	0.716
9.39169	0.757
9.42603	0.762
9.46038	0.767
9.49472	0.781
9.52907	0.796
9.56342	0.803
9.59776	0.808
9.63211	0.81
9.66645	0.812
9.7008	0.808
9.73514	0.807
9.76949	0.805
9.80384	0.805
9.83818	0.805
9.87253	0.803
9.90687	0.803
9.94122	0.803
9.97557	0.805
10.0099	0.803
10.0443	0.803
10.0786	0.798
10.113	0.791
10.1473	0.783
10.1816	0.771
10.216	0.75
10.2503	0.711
10.2847	0.655
10.319	0.54
10.3534	0.448
10.3877	0.421
10.4221	0.465
10.4564	0.592
10.4908	0.65
10.5251	0.67
10.5594	0.668
10.5938	0.643
10.6281	0.59
10.6625	0.505
10.6968	0.392
10.7312	0.3
10.7655	0.291
10.7999	0.244
10.8342	0.139
10.8686	0.027
10.9029	0
10.9373	0.032
10.9716	0.141
11.0059	0.24
11.0403	0.431
11.0746	0.498
11.109	0.546
11.1433	0.552
11.1777	0.54
11.212	0.505
11.2464	0.45
11.2807	0.372
11.3151	0.242
11.3494	0.102
11.3837	0.058
11.4181	0.059
11.4524	0.105
11.4868	0.112
11.5211	0.098
11.5555	0.114
11.5898	0.208
11.6242	0.315
11.6585	0.346
11.6929	0.365
11.7272	0.368
11.7616	0.331
11.7959	0.266
11.8302	0.18
11.8646	0.109
11.8989	0.061
11.9333	0.071
11.9676	0.136
12.002	0.226
12.0363	0.351
12.0707	0.441
12.105	0.489
12.1394	0.518
12.1737	0.518
12.2081	0.496
12.2424	0.44
12.2767	0.331
12.3111	0.22
12.3454	0.153
12.3798	0.114
12.4141	0.098
12.4485	0.151
12.4828	0.288
12.5172	0.406
12.5515	0.551
12.5859	0.607
12.6202	0.655
12.6545	0.674
12.6889	0.68
12.7232	0.68
12.7576	0.663
12.7919	0.626
12.8263	0.556
12.8606	0.477
12.895	0.462
12.9293	0.552
12.9637	0.643
12.998	0.697
13.0324	0.74
13.0667	0.755
13.101	0.767
13.1354	0.773
13.1697	0.774
13.2041	0.778
13.2384	0.778
13.2728	0.778
13.3071	0.779
13.3415	0.776
13.3758	0.774
13.4102	0.773
13.4445	0.778
13.4789	0.779
13.5132	0.774
13.5475	0.762
13.5819	0.759
13.6162	0.752
13.6506	0.749
13.6849	0.749
13.7193	0.747
13.7536	0.745
13.788	0.742
13.8223	0.738
13.8567	0.735
13.891	0.733
13.9253	0.732
13.9597	0.728
13.994	0.725
14.0284	0.721
14.0627	0.716
14.0971	0.709
14.1314	0.704
14.1658	0.699
14.2001	0.696
14.2345	0.692
14.2688	0.687
14.3032	0.682
14.3375	0.675
14.3718	0.672
14.4062	0.663
14.4405	0.656
14.4749	0.653
14.5092	0.645
14.5436	0.639
14.5779	0.634
14.6123	0.626
14.6466	0.617
14.681	0.612
14.7153	0.604
14.7497	0.595
14.784	0.587
14.8183	0.558
14.8527	0.576
14.887	0.576
14.9214	0.569
14.9557	0.561
14.9901	0.554
15.0244	0.546
15.0588	0.537
15.0931	0.522
15.1275	0.51
15.1618	0.501
15.1961	0.494
15.2305	0.488
15.2648	0.474
15.2992	0.465
15.3335	0.464
15.3679	0.462
15.4022	0.457
15.4366	0.457
15.4709	0.457
15.5053	0.453
15.5396	0.452
15.574	0.45
15.6083	0.448
15.6426	0.448
15.677	0.45
