Infrared Spectrum: 1,4-Butanediamine
Formula: C 4 H 12 N 2
CAS: 110-60-1
State: gas
Origin: Sadtler Research Labs Under US-EPA Contract
1/CM	ABSORBANCE
450	0.0201564
462	0.0192884
474	0.0146592
486	0.0355871
498	0.0227603
510	0.0343334
522	0.0385768
534	0.0262322
546	0.0322116
558	0.0322116
570	0.0211208
582	0.0333689
594	0.0205421
606	0.0271966
618	0.029897
630	0.0282575
642	0.0338511
654	0.0337547
666	0.0355871
678	0.0527538
690	0.0677987
702	0.0901733
714	0.136562
726	0.21767
738	0.346516
750	0.492433
762	0.611924
774	0.70557
786	0.596012
798	0.367444
810	0.221431
822	0.139552
834	0.101843
846	0.0805291
858	0.0642304
870	0.0528502
882	0.0404092
894	0.0336583
906	0.0343334
918	0.0352013
930	0.0412772
942	0.0382875
954	0.0341405
966	0.036648
978	0.0281611
990	0.0304757
1002	0.0346227
1014	0.0395412
1026	0.0437847
1038	0.0587332
1050	0.098178
1062	0.163662
1074	0.188544
1086	0.122481
1098	0.0646161
1110	0.0329832
1122	0.0146592
1134	0.00655806
1146	0.00212172
1158	0.00212172
1170	0.0018324
1182	0.00125375
1194	0.0018324
1206	0.00308614
1218	0.00221817
1230	0.00376124
1242	0.00588296
1254	0.00752248
1266	0.0106086
1278	0.0136948
1290	0.0189026
1302	0.0244963
1314	0.0238212
1326	0.0234354
1338	0.0311508
1350	0.0460028
1362	0.0691489
1374	0.0930665
1386	0.111776
1398	0.0911377
1410	0.0422416
1422	0.0305721
1434	0.0418558
1446	0.0586367
1458	0.0691489
1470	0.0651948
1482	0.0527538
1494	0.0315365
1506	0.0210244
1518	0.0162987
1530	0.0135983
1542	0.0175524
1554	0.0159129
1566	0.0214101
1578	0.0330796
1590	0.0547791
1602	0.09731
1614	0.175428
1626	0.202914
1638	0.142541
1650	0.0660628
1662	0.0313437
1674	0.0162023
1686	0.0154307
1698	0.00935487
1710	0.00617229
1722	0.00800469
1734	0.00626873
1746	0.00511143
1758	0.00433989
1770	0.00520787
1782	0.0066545
1794	0.00569008
1806	0.00771536
1818	0.00867978
1830	0.00839045
1842	0.00867978
1854	0.00761892
1866	0.00520787
1878	0.00270038
1890	0.00192884
1902	0.000192884
1914	0.000192884
1926	0.00048221
1938	0.00125375
1950	0.00135019
1962	0.00163951
1974	0.0011573
1986	0.0011573
1998	0.00135019
2010	0.00221817
2022	0.00347191
2034	0.00385768
2046	0.00462922
2058	0.00540075
2070	0.00433989
2082	0.00385768
2094	0.00501498
2106	0.00443633
2118	0.00337547
2130	0.00279682
2142	0.00347191
2154	0.00414701
2166	0.00443633
2178	0.0048221
2190	0.00569008
2202	0.00540075
2214	0.00530431
2226	0.0048221
2238	0.00501498
2250	0.00549719
2262	0.00607585
2274	0.0066545
2286	0.00655806
2298	0.00520787
2310	0.00279682
2322	0.000675094
2334	0.000867978
2346	0.00819757
2358	0.000578652
2370	0.0182275
2382	0.0158165
2394	0.01003
2406	0.00925843
2418	0.00954776
2430	0.00925843
2442	0.00945132
2454	0.0102229
2466	0.0110908
2478	0.011573
2490	0.0127303
2502	0.0132126
2514	0.0142734
2526	0.0153343
2538	0.0162023
2550	0.0171667
2562	0.0182275
2574	0.0179382
2586	0.0192884
2598	0.0205421
2610	0.0222781
2622	0.0235318
2634	0.0253642
2646	0.0287397
2658	0.032501
2670	0.0346227
2682	0.0384804
2694	0.042338
2706	0.0460028
2718	0.0501498
2730	0.0567079
2742	0.0651948
2754	0.0699204
2766	0.0685703
2778	0.0651948
2790	0.0650983
2802	0.0760927
2814	0.10599
2826	0.17186
2838	0.298777
2850	0.466972
2862	0.559267
2874	0.514904
2886	0.416437
2898	0.413833
2910	0.576723
2922	0.824868
2934	0.96442
2946	0.818985
2958	0.510564
2970	0.26319
2982	0.130197
2994	0.0688596
3006	0.0478352
3018	0.0351049
3030	0.0291255
3042	0.0252678
3054	0.0195777
3066	0.0166845
3078	0.0145627
3090	0.0123446
3102	0.0101264
3114	0.00829401
3126	0.00742603
3138	0.0078118
3150	0.00723315
3162	0.00945132
3174	0.00925843
3186	0.00732959
3198	0.0059794
3210	0.00540075
3222	0.00559364
3234	0.00569008
3246	0.00453277
3258	0.00626873
3270	0.00694382
3282	0.00771536
3294	0.00819757
3306	0.00867978
3318	0.00877622
3330	0.0166845
3342	0.0243034
3354	0.0235318
3366	0.0156236
3378	0.0105122
3390	0.0111873
3402	0.0125375
3414	0.0107051
3426	0.00877622
3438	0.00520787
3450	0.00414701
3462	0.0059794
3474	0.00520787
3486	0.00491854
3498	0.00626873
3510	0.00443633
3522	0.00376124
3534	0.00376124
3546	0.00106086
3558	0.00308614
3570	0.00405056
3582	0.000867978
3594	0.00318259
3606	0.00501498
3618	0.00549719
3630	0.00858334
3642	0.0078118
3654	0.00569008
3666	0.00540075
3678	0.00684738
3690	0.00395412
3702	0.00491854
3714	0.00935487
3726	0.00501498
3738	0.0103193
3750	0.00839045
3762	0.00569008
3774	0.00646161
3786	0.00144663
3798	0.00520787
3810	0.00327903
3822	0.0036648
3834	0.00472566
3846	0.00694382
3858	0.0102229
3870	0.00540075
3882	0.0018324
3894	0.0011573
3906	0.00356835
3918	0.00559364
3930	0.00559364
3942	0.00173596
3954	0.0106086
3966	0.0101264
