Infrared Spectrum: 1,4-BUTANE DIAMINE
Formula: C4 H12 N2
CAS: 110-60-1
Boiling point: 63-66 C AT 15 mmHg
Class: COBLENTZ
Instrument: Not specified, most likely a prism, grating, or hybrid spectrometer.
Sampling: TRANSMISSION
Path length: SMEAR
Resolution: 4
Origin: TENNESSEE EASTMAN COMPANY, RESEARCH LABORATORIES
MICROMETERS	TRANSMITTANCE
2	0.929
2.04092	0.977
2.08183	0.958
2.12275	0.962
2.16367	0.965
2.20459	0.964
2.2455	0.902
2.28642	0.876
2.32734	0.859
2.36825	0.876
2.40917	0.914
2.45009	0.945
2.491	0.957
2.53192	0.964
2.57284	0.962
2.61376	0.96
2.65467	0.95
2.69559	0.929
2.73651	0.914
2.77742	0.897
2.81834	0.851
2.85926	0.787
2.90017	0.679
2.94109	0.232
2.98201	0.243
3.02293	0.15
3.06384	0.202
3.10476	0.299
3.14568	0.402
3.18659	0.592
3.22751	0.715
3.26843	0.722
3.30934	0.616
3.35026	0.169
3.39118	0.01
3.4321	0.032
3.47301	0.015
3.51393	0.171
3.55485	0.417
3.59576	0.385
3.63668	0.503
3.6776	0.599
3.71851	0.616
3.75943	0.693
3.80035	0.76
3.84127	0.813
3.88218	0.857
3.9231	0.888
3.96402	0.909
4.00493	0.926
4.04585	0.938
4.08677	0.943
4.12768	0.948
4.1686	0.95
4.20952	0.953
4.25044	0.957
4.29135	0.955
4.33227	0.958
4.37319	0.958
4.4141	0.96
4.45502	0.958
4.49594	0.96
4.53685	0.955
4.57777	0.957
4.61869	0.958
4.65961	0.955
4.70052	0.95
4.74144	0.945
4.78236	0.943
4.82327	0.934
4.86419	0.926
4.90511	0.921
4.94603	0.916
4.98694	0.912
5.02786	0.897
5.06878	0.883
5.10969	0.871
5.15061	0.861
5.19153	0.857
5.23244	0.859
5.27336	0.866
5.31428	0.878
5.3552	0.892
5.39611	0.9
5.43703	0.904
5.47795	0.909
5.51886	0.912
5.55978	0.91
5.6007	0.907
5.64161	0.9
5.68253	0.888
5.72345	0.868
5.76437	0.847
5.80528	0.823
5.8462	0.789
5.88712	0.751
5.92803	0.71
5.96895	0.648
6.00987	0.558
6.05078	0.465
6.0917	0.364
6.13262	0.265
6.17354	0.181
6.21445	0.128
6.25537	0.126
6.29629	0.169
6.3372	0.248
6.37812	0.333
6.41904	0.429
6.45995	0.494
6.50087	0.563
6.54179	0.602
6.58271	0.638
6.62362	0.645
6.66454	0.636
6.70546	0.554
6.74637	0.395
6.78729	0.373
6.82821	0.38
6.86912	0.32
6.91004	0.397
6.95096	0.517
6.99188	0.642
7.03279	0.666
7.07371	0.625
7.11463	0.508
7.15554	0.282
7.19646	0.258
7.23738	0.328
7.2783	0.361
7.31921	0.363
7.36013	0.388
7.40105	0.433
7.44196	0.503
7.48288	0.573
7.5238	0.602
7.56471	0.587
7.60563	0.558
7.64655	0.556
7.68747	0.577
7.72838	0.613
7.7693	0.647
7.81022	0.669
7.85113	0.684
7.89205	0.696
7.93297	0.708
7.97388	0.71
8.0148	0.71
8.05572	0.71
8.09664	0.715
8.13755	0.722
8.17847	0.726
8.21939	0.726
8.2603	0.717
8.30122	0.719
8.34214	0.703
8.38305	0.698
8.42397	0.684
8.46489	0.669
8.50581	0.655
8.54672	0.648
8.58764	0.64
8.62856	0.628
8.66947	0.616
8.71039	0.607
8.75131	0.599
8.79222	0.594
8.83314	0.585
8.87406	0.577
8.91498	0.559
8.95589	0.542
8.99681	0.515
9.03773	0.462
9.07864	0.407
9.11956	0.366
9.16048	0.328
9.20139	0.279
9.24231	0.212
9.28323	0.164
9.32415	0.159
9.36506	0.167
9.40598	0.186
9.4469	0.219
9.48781	0.246
9.52873	0.268
9.56965	0.297
9.61056	0.313
9.65148	0.32
9.6924	0.337
9.73332	0.349
9.77423	0.356
9.81515	0.361
9.85607	0.361
9.89698	0.356
9.9379	0.345
9.97882	0.33
10.0197	0.325
10.0607	0.32
10.1016	0.306
10.1425	0.297
10.1834	0.279
10.2243	0.255
10.2652	0.232
10.3062	0.212
10.3471	0.19
10.388	0.169
10.4289	0.15
10.4698	0.136
10.5107	0.121
10.5517	0.113
10.5926	0.109
10.6335	0.104
10.6744	0.101
10.7153	0.101
10.7562	0.097
10.7972	0.097
10.8381	0.092
10.879	0.085
10.9199	0.077
10.9608	0.068
11.0017	0.059
11.0427	0.054
11.0836	0.049
11.1245	0.046
11.1654	0.039
11.2063	0.039
11.2472	0.037
11.2882	0.032
11.3291	0.03
11.37	0.029
11.4109	0.027
11.4518	0.025
11.4927	0.022
11.5337	0.023
11.5746	0.022
11.6155	0.02
11.6564	0.02
11.6973	0.02
11.7382	0.02
11.7792	0.02
11.8201	0.018
11.861	0.018
11.9019	0.018
11.9428	0.018
11.9838	0.017
12.0247	0.017
12.0656	0.018
12.1065	0.02
12.1474	0.02
12.1883	0.022
12.2293	0.022
12.2702	0.025
12.3111	0.027
12.352	0.03
12.3929	0.032
12.4338	0.034
12.4748	0.039
12.5157	0.044
12.5566	0.049
12.5975	0.056
12.6384	0.063
12.6793	0.077
12.7203	0.087
12.7612	0.101
12.8021	0.114
12.843	0.126
12.8839	0.145
12.9248	0.164
12.9658	0.183
13.0067	0.202
13.0476	0.215
13.0885	0.232
13.1294	0.239
13.1703	0.248
13.2113	0.253
13.2522	0.255
13.2931	0.251
13.334	0.248
13.3749	0.246
13.4158	0.244
13.4568	0.244
13.4977	0.25
13.5386	0.267
13.5795	0.291
13.6204	0.327
13.6613	0.351
13.7023	0.376
13.7432	0.397
13.7841	0.41
13.825	0.429
13.8659	0.446
13.9069	0.453
13.9478	0.46
13.9887	0.476
14.0296	0.481
14.0705	0.489
14.1114	0.498
14.1524	0.501
14.1933	0.506
14.2342	0.515
14.2751	0.52
14.316	0.523
14.3569	0.53
14.3979	0.535
14.4388	0.539
14.4797	0.547
14.5206	0.549
14.5615	0.553
14.6024	0.554
14.6434	0.554
14.6843	0.558
14.7252	0.561
14.7661	0.565
14.807	0.565
14.8479	0.563
14.8889	0.568
14.9298	0.573
14.9707	0.578
15.0116	0.571
15.0525	0.566
15.0934	0.565
15.1344	0.57
15.1753	0.571
15.2162	0.571
15.2571	0.57
15.298	0.57
15.3389	0.573
15.3799	0.577
15.4208	0.573
15.4617	0.573
15.5026	0.577
15.5435	0.577
15.5844	0.577
15.6254	0.578
15.6663	0.578
15.7072	0.578
15.7481	0.578
15.789	0.578
15.83	0.58
15.8709	0.58
15.9118	0.583
15.9527	0.587
