Infrared Spectrum: Formamide
Formula: C H 3 N O
CAS: 75-12-7
State: gas
Origin: Sadtler Research Labs Under US-EPA Contract
1/CM	ABSORBANCE
450	0.027832
462	0.020288
474	0.0188232
486	0.0115722
498	0.00388183
510	0.00578612
522	0.00725096
534	0.0219726
546	0.0395507
558	0.0504637
570	0.0593993
582	0.0911863
594	0.0606444
606	0.0558104
618	0.050244
630	0.0646727
642	0.0653319
654	0.0518553
666	0.0530272
678	0.0433593
690	0.020874
702	0.00659178
714	0.00637205
726	0.00761717
738	0.0218261
750	0.0375731
762	0.0265136
774	0.029663
786	0.0555174
798	0.0426268
810	0.025122
822	0.0221923
834	0.0315673
846	0.0221923
858	0.0177246
870	0.0125244
882	0.0102539
894	0.00834959
906	0.00783689
918	0.00878904
930	0.0125976
942	0.00974119
954	0.0103271
966	0.0183837
978	0.0128906
990	0.0112793
1002	0.0110595
1014	0.0158935
1026	0.0206542
1038	0.0194824
1050	0.0183105
1062	0.0236572
1074	0.032373
1086	0.0315673
1098	0.0219726
1110	0.0240234
1122	0.0418212
1134	0.0306884
1146	0.0270995
1158	0.0298827
1170	0.0366942
1182	0.0298095
1194	0.0265868
1206	0.0279052
1218	0.0518553
1230	0.103051
1242	0.146923
1254	0.104736
1266	0.13396
1278	0.164941
1290	0.0760252
1302	0.020288
1314	0.013623
1326	0.0122314
1338	0.0127441
1350	0.00483397
1362	0.0123047
1374	0.01333
1386	0.00776365
1398	0.0110595
1410	0.00673826
1422	0.00791014
1434	0.00424804
1446	0.00190429
1458	0.0171386
1470	0.00175781
1482	0.00205078
1494	0.00285644
1506	0.0150879
1518	0.0154541
1530	0.0126709
1542	0.0325927
1554	0.0451903
1566	0.0533934
1578	0.0602782
1590	0.059619
1602	0.063867
1614	0.0412352
1626	0.0301757
1638	0.0339843
1650	0.0239501
1662	0.0145019
1674	0.0153808
1686	0.0270995
1698	0.0429198
1710	0.104297
1722	0.305566
1734	0.585643
1746	0.498705
1758	0.370458
1770	0.728685
1782	0.456005
1794	0.128393
1806	0.0352294
1818	0.0165527
1830	0.0128906
1842	0.0103271
1854	0.00410155
1866	0.0036621
1878	0.00212402
1890	0.00432128
1902	0.00212402
1914	0.00161132
1926	0.00219726
1938	0.000585936
1950	0.00036621
1962	0.00073242
1974	0.000219726
1986	0.000292968
1998	0.000659178
2010	0.000659178
2022	0.000805662
2034	0.000292968
2046	0.000512694
2058	0.000219726
2070	0.00036621
2082	0.00073242
2094	0.000805662
2106	0.000878904
2118	0.000952146
2130	0.000805662
2142	0.00036621
2154	0.000878904
2166	0.000878904
2178	0.000878904
2190	0.0013916
2202	0.000878904
2214	0.00161132
2226	0.00109863
2238	0.00109863
2250	0.000585936
2262	0.00175781
2274	0.0027832
2286	0.00417479
2298	0.00417479
2310	0.00490721
2322	0.00556639
2334	0.00476073
2346	0.00263671
2358	0.00476073
2370	0.004541
2382	0.00256347
2394	0.000805662
2406	0.000878904
2418	0.000439452
2430	0.0013916
2442	0.000878904
2454	0.000805662
2466	0.00073242
2478	0.00124511
2490	0.00117187
2502	0.00161132
2514	0.00109863
2526	0.00117187
2538	0.00161132
2550	0.000439452
2562	0.000512694
2574	0.000952146
2586	0.00161132
2598	0.00190429
2610	0.00183105
2622	0.00183105
2634	0.0027832
2646	0.00292968
2658	0.00307616
2670	0.00424804
2682	0.00527342
2694	0.00673826
2706	0.00812986
2718	0.0128906
2730	0.0185302
2742	0.0177978
2754	0.0132568
2766	0.0279052
2778	0.0328124
2790	0.0343505
2802	0.0399169
2814	0.0511229
2826	0.0680418
2838	0.0806394
2850	0.0484862
2862	0.0624022
2874	0.087158
2886	0.0640867
2898	0.0421142
2910	0.0304687
2922	0.0216064
2934	0.013623
2946	0.00761717
2958	0.00556639
2970	0.00402831
2982	0.00300292
2994	0.00205078
3006	0.00153808
3018	0.00190429
3030	0.000878904
3042	0.00131836
3054	0.000952146
3066	0.000805662
3078	0.0013916
3090	0.00117187
3102	0.00175781
3114	0.0022705
3126	0.00322265
3138	0.00205078
3150	0.00336913
3162	0.0036621
3174	0.00263671
3186	0.00205078
3198	0.00241699
3210	0.00212402
3222	0.000512694
3234	0.00190429
3246	0.00117187
3258	0.00131836
3270	0.0013916
3282	0.0013916
3294	0.00205078
3306	0.00124511
3318	0.00183105
3330	0.00168457
3342	0.00256347
3354	0.00307616
3366	0.004541
3378	0.00805662
3390	0.015747
3402	0.0243163
3414	0.0376464
3426	0.0441649
3438	0.0410155
3450	0.0385985
3462	0.0429198
3474	0.0258544
3486	0.0202148
3498	0.0223388
3510	0.0301025
3522	0.0298095
3534	0.0339843
3546	0.0513426
3558	0.0319335
3570	0.0331054
3582	0.0379394
3594	0.0290038
3606	0.0159668
3618	0.0140625
3630	0.0148681
3642	0.0050537
3654	0.00585936
3666	0.00197753
3678	0.00688475
3690	0.00571288
3702	0.0027832
3714	0.00615233
3726	0.00812986
3738	0.0101074
3750	0.00886228
3762	0.00314941
3774	0.00168457
3786	0.0013916
3798	0.00322265
3810	0.0027832
3822	0.00563963
3834	0.00556639
3846	0.00388183
3858	0.00629881
3870	0.00747068
3882	0.0064453
3894	0.00476073
3906	0.0059326
3918	0.00483397
3930	0.00344237
3942	0.00285644
3954	0
3966	0.000219726
