Infrared Spectrum: Formamide
Formula: C H3 N O
CAS: 75-12-7
State: LIQUID (NEAT)
Class: COBLENTZ II
Instrument: BECKMAN IR-9 (GRATING)
Instrument parameters: ORDER CHANGES: 670, 1200, 2000 CM^-^1
Sampling: TRANSMISSION
Path length: FILM BETWEEN KBr PLATES
Resolution: 2
Origin: DOW CHEMICAL COMPANY
1/CM	TRANSMITTANCE
3820	0.8232
3811	0.8231
3802	0.8231
3793	0.8228
3784	0.8227
3775	0.8218
3766	0.8206
3757	0.8194
3748	0.8183
3739	0.8161
3730	0.8138
3721	0.8101
3712	0.8019
3703	0.7884
3694	0.7699
3685	0.75
3676	0.7337
3667	0.7128
3658	0.6898
3649	0.6647
3640	0.6336
3631	0.6047
3622	0.5762
3613	0.5509
3604	0.5299
3595	0.51
3586	0.4875
3577	0.4621
3568	0.44
3559	0.4179
3550	0.4022
3541	0.3834
3532	0.3591
3523	0.318
3514	0.2843
3505	0.2501
3496	0.2128
3487	0.1886
3478	0.1706
3469	0.1604
3460	0.1531
3451	0.1489
3442	0.1476
3433	0.1468
3424	0.1462
3415	0.1456
3406	0.145
3397	0.1446
3388	0.145
3379	0.1452
3370	0.1452
3361	0.1452
3352	0.1451
3343	0.1448
3334	0.1448
3325	0.1457
3316	0.1514
3307	0.1576
3298	0.1636
3289	0.1657
3280	0.1654
3271	0.1643
3262	0.1643
3253	0.1678
3244	0.1734
3235	0.1752
3226	0.1762
3217	0.177
3208	0.1772
3199	0.1772
3190	0.18
3181	0.1873
3172	0.1979
3163	0.2134
3154	0.2282
3145	0.2437
3136	0.2723
3127	0.3041
3118	0.3268
3109	0.3462
3100	0.365
3091	0.3829
3082	0.4006
3073	0.4188
3064	0.4372
3055	0.4558
3046	0.4748
3037	0.4914
3028	0.5068
3019	0.5256
3010	0.5421
3001	0.5557
2992	0.5681
2983	0.5822
2974	0.5955
2965	0.5991
2956	0.5975
2947	0.5902
2938	0.5731
2929	0.5276
2920	0.4554
2911	0.3891
2902	0.3532
2893	0.3522
2884	0.3796
2875	0.4181
2866	0.5345
2857	0.6108
2848	0.6518
2839	0.6582
2830	0.6586
2821	0.6549
2812	0.6472
2803	0.6407
2794	0.6378
2785	0.6386
2776	0.6441
2767	0.6565
2758	0.6799
2749	0.708
2740	0.7242
2731	0.725
2722	0.7251
2713	0.7238
2704	0.7253
2695	0.7297
2686	0.7394
2677	0.7521
2668	0.7701
2659	0.7831
2650	0.7958
2641	0.8078
2632	0.8189
2623	0.8264
2614	0.833
2605	0.838
2596	0.8425
2587	0.8462
2578	0.8499
2569	0.853
2560	0.8559
2551	0.857
2542	0.8582
2533	0.8587
2524	0.859
2515	0.8592
2506	0.8592
2497	0.8582
2488	0.8571
2479	0.8562
2470	0.8549
2461	0.8534
2452	0.852
2443	0.8496
2434	0.847
2425	0.8453
2416	0.8441
2407	0.843
2398	0.8424
2389	0.842
2380	0.8418
2371	0.8411
2362	0.8401
2353	0.8391
2344	0.8381
2335	0.8371
2326	0.8363
2317	0.8355
2308	0.8347
2299	0.8344
2290	0.8341
2281	0.8339
2272	0.8338
2263	0.833
2254	0.8304
2245	0.8255
2236	0.8192
2227	0.8155
2218	0.813
2209	0.8118
2200	0.8104
2191	0.8099
2182	0.8114
2173	0.8126
2164	0.8138
2155	0.8148
2146	0.8157
2137	0.8154
2128	0.8151
2119	0.815
2110	0.8148
2101	0.8145
2092	0.8141
2083	0.8137
2074	0.8134
2065	0.8131
2056	0.8125
2047	0.8115
2038	0.8108
2029	0.8101
2020	0.8097
2011	0.8119
2002	0.8275
1993	0.8323
1984	0.8321
1975	0.8317
1966	0.8313
1957	0.8308
1948	0.8289
1939	0.8262
1930	0.823
1921	0.8191
1912	0.8145
1903	0.8086
1894	0.8024
1885	0.795
1876	0.7871
1867	0.7794
1858	0.7718
1849	0.7646
1840	0.7558
1831	0.7434
1822	0.7272
1813	0.7111
1804	0.6887
1795	0.6638
1786	0.6381
1777	0.6074
1768	0.5724
1759	0.5323
1750	0.4685
1741	0.395
1732	0.2218
1723	0.0915
1714	0.0723
1705	0.0609
1696	0.0544
1687	0.0517
1678	0.0556
1669	0.0863
1660	0.1528
1651	0.1983
1642	0.2324
1633	0.2537
1624	0.2521
1615	0.221
1606	0.2184
1597	0.2258
1588	0.2402
1579	0.2803
1570	0.345
1561	0.4075
1552	0.4534
1543	0.4998
1534	0.5384
1525	0.5617
1516	0.5706
1507	0.5709
1498	0.5672
1489	0.5605
1480	0.5495
1471	0.5375
1462	0.527
1453	0.5205
1444	0.5162
1435	0.5122
1426	0.5003
1417	0.4796
1408	0.366
1399	0.2116
1390	0.1429
1381	0.2583
1372	0.3774
1363	0.4208
1354	0.383
1345	0.3312
1336	0.2796
1327	0.2279
1318	0.1785
1309	0.1757
1300	0.2004
1291	0.247
1282	0.3124
1273	0.3764
1264	0.4324
1255	0.461
1246	0.4836
1237	0.5008
1228	0.5125
1219	0.5237
1210	0.5346
1201	0.5458
1192	0.5571
1183	0.5681
1174	0.5781
1165	0.5873
1156	0.5943
1147	0.6007
1138	0.6042
1129	0.6058
1120	0.5986
1111	0.5849
1102	0.5729
1093	0.5635
1084	0.5595
1075	0.5595
1066	0.5459
1057	0.4715
1048	0.4783
1039	0.602
1030	0.6574
1021	0.679
1012	0.6894
1003	0.698
994	0.7053
985	0.7115
976	0.7161
967	0.7186
958	0.721
949	0.7231
940	0.7235
931	0.7221
922	0.7201
913	0.7149
904	0.7084
895	0.7001
886	0.6907
877	0.68
868	0.6661
859	0.6499
850	0.6316
841	0.6149
832	0.5954
823	0.5698
814	0.5384
805	0.5072
796	0.4843
787	0.4626
778	0.441
769	0.4156
760	0.3979
751	0.3852
742	0.3698
733	0.3546
724	0.3362
715	0.3146
706	0.2948
697	0.2781
688	0.2635
679	0.2496
670	0.2411
661	0.2328
652	0.2223
643	0.2089
634	0.1944
625	0.1852
616	0.1731
607	0.1631
598	0.1662
589	0.1817
580	0.1982
571	0.2117
562	0.2204
553	0.23
544	0.2407
535	0.2523
526	0.2663
517	0.2872
508	0.3035
499	0.3216
490	0.3425
481	0.3634
472	0.3832
463	0.4008
454	0.409
445	0.4106
436	0.405
427	0.3998
418	0.3771
409	0.3464
