Infrared Spectrum: Vinylidene fluoride
Formula: C2 H2 F2
CAS: 75-38-7
State: SOLUTION, SATURATED (CCl4 FOR 3800-1330, CS2 FOR 1330-500 CM^-^1)
Class: COBLENTZ III
Instrument: DOW KBr FOREPRISM-GRATING
Instrument parameters: BLAZED AT 3.5, 12.0, 20.0 MICRON AND CHANGED AT 5.0, 7.5, 14.9 MICRON
Sampling: TRANSMISSION
Path length: 0.054 CM, 0.056 CM
Resolution: 2
Origin: DOW CHEMICAL COMPANY
1/CM	TRANSMITTANCE
3800	0.9341
3791	0.9381
3782	0.9348
3773	0.939
3764	0.9386
3755	0.9377
3746	0.9366
3737	0.9392
3728	0.9377
3719	0.9305
3710	0.9319
3701	0.9305
3692	0.9245
3683	0.9229
3674	0.9251
3665	0.9274
3656	0.9285
3647	0.9271
3638	0.9258
3629	0.9246
3620	0.9272
3611	0.9258
3602	0.9213
3593	0.9216
3584	0.9194
3575	0.9156
3566	0.9194
3557	0.924
3548	0.9291
3539	0.9275
3530	0.9282
3521	0.9236
3512	0.9229
3503	0.9219
3494	0.9206
3485	0.9192
3476	0.9179
3467	0.9162
3458	0.9143
3449	0.9126
3440	0.9115
3431	0.9119
3422	0.9139
3413	0.9142
3404	0.9146
3395	0.9141
3386	0.9137
3377	0.9132
3368	0.9127
3359	0.9121
3350	0.9118
3341	0.9121
3332	0.912
3323	0.912
3314	0.9123
3305	0.9163
3296	0.913
3287	0.9132
3278	0.9163
3269	0.9172
3260	0.9169
3251	0.9166
3242	0.9165
3233	0.9162
3224	0.9164
3215	0.9164
3206	0.9127
3197	0.915
3188	0.9142
3179	0.907
3170	0.9028
3161	0.9031
3152	0.9033
3143	0.893
3134	0.8739
3125	0.7322
3116	0.8085
3107	0.875
3098	0.8925
3089	0.8991
3080	0.8954
3071	0.9057
3062	0.901
3053	0.8997
3044	0.9028
3035	0.9169
3026	0.9071
3017	0.9132
3008	0.9103
2999	0.9101
2990	0.9117
2981	0.9087
2972	0.9123
2963	0.9189
2954	0.9179
2945	0.9147
2936	0.9163
2927	0.912
2918	0.9125
2909	0.9137
2900	0.9144
2891	0.9149
2882	0.9158
2873	0.9166
2864	0.9176
2855	0.9191
2846	0.921
2837	0.9233
2828	0.9224
2819	0.9275
2810	0.9268
2801	0.9331
2792	0.9351
2783	0.9348
2774	0.9361
2765	0.9344
2756	0.933
2747	0.9316
2738	0.9313
2729	0.9312
2720	0.9325
2711	0.9338
2702	0.9353
2693	0.9346
2684	0.9267
2675	0.9228
2666	0.9217
2657	0.9246
2648	0.9178
2639	0.9155
2630	0.9199
2621	0.9278
2612	0.9303
2603	0.9292
2594	0.9323
2585	0.9367
2576	0.938
2567	0.9354
2558	0.9337
2549	0.9345
2540	0.9356
2531	0.9364
2522	0.9373
2513	0.9378
2504	0.9375
2495	0.937
2486	0.9371
2477	0.9415
2468	0.9358
2459	0.9335
2450	0.9309
2441	0.9337
2432	0.9332
2423	0.9325
2414	0.9321
2405	0.934
2396	0.9293
2387	0.9266
2378	0.9337
2369	0.9392
2360	0.9443
2351	0.9516
2342	0.9426
2333	0.9259
2324	0.9197
2315	0.8986
2306	0.8763
2297	0.8525
2288	0.8402
2279	0.8455
2270	0.8556
2261	0.8634
2252	0.8704
2243	0.8759
2234	0.8875
2225	0.8973
2216	0.9011
2207	0.8994
2198	0.8983
2189	0.8999
2180	0.9053
2171	0.9119
2162	0.9099
2153	0.9112
2144	0.9112
2135	0.9112
2126	0.9112
2117	0.9118
2108	0.9127
2099	0.9134
2090	0.9141
2081	0.9139
2072	0.9104
2063	0.9106
2054	0.9123
2045	0.9073
2036	0.9079
2027	0.9087
2018	0.9035
2009	0.8959
2000	0.8866
1991	0.8851
1982	0.8939
1973	0.8933
1964	0.8959
1955	0.9051
1946	0.8965
1937	0.8929
1928	0.9011
1919	0.8919
1910	0.8778
1901	0.8671
1892	0.8763
1883	0.8817
1874	0.8758
1865	0.8692
1856	0.8697
1847	0.8686
1838	0.8716
1829	0.8708
1820	0.8776
1811	0.8868
1802	0.8843
1793	0.8841
1784	0.8764
1775	0.8569
1766	0.8388
1757	0.8011
1748	0.7168
1739	0.1152
1730	0.0105
1721	0.1279
1712	0.364
1703	0.7212
1694	0.7771
1685	0.8107
1676	0.8449
1667	0.8591
1658	0.8631
1649	0.8537
1640	0.8335
1631	0.7909
1622	0.7249
1613	0.6775
1604	0.5872
1595	0.5455
1586	0.3541
1577	0.3274
1568	0.2477
1559	0.2018
1550	0.2412
1541	0.2454
1532	0.314
1523	0.3183
1514	0.4428
1505	0.5241
1496	0.6697
1487	0.7218
1478	0.7828
1469	0.7909
1460	0.8167
1451	0.8401
1442	0.8567
1433	0.8666
1424	0.8725
1415	0.8712
1406	0.8753
1397	0.881
1388	0.8927
1379	0.884
1370	0.8689
1361	0.8548
1352	0.837
1343	0.7399
1334	0.6816
1325	0.6343
1316	0.572
1307	0.4567
1298	0.3491
1289	0.4447
1280	0.3593
1271	0.6125
1262	0.7773
1253	0.846
1244	0.8627
1235	0.882
1226	0.9017
1217	0.8827
1208	0.8257
1199	0.8707
1190	0.8854
1181	0.8601
1172	0.6242
1163	0.1493
1154	0.6194
1145	0.5965
1136	0.1871
1127	0.5818
1118	0.7809
1109	0.8779
1100	0.8766
1091	0.8077
1082	0.4829
1073	0.0367
1064	0.5551
1055	0.826
1046	0.8986
1037	0.9314
1028	0.9427
1019	0.9474
1010	0.9446
1001	0.9317
992	0.9317
983	0.9282
974	0.8949
965	0.8312
956	0.5827
947	0.3962
938	0.7224
929	0.6603
920	0.5762
911	0.7763
902	0.8503
893	0.8084
884	0.6898
875	0.5866
866	0.5172
857	0.4418
848	0.5383
839	0.7218
830	0.7702
821	0.4465
812	-0.0036
803	0.3508
794	0.7109
785	0.8035
776	0.8652
767	0.8152
758	0.8648
749	0.8171
740	0.5528
731	0.7538
722	0.8592
713	0.8739
704	0.8807
695	0.8912
686	0.8921
677	0.8942
668	0.9107
659	0.7603
650	0.7458
641	0.823
632	0.8516
623	0.8223
614	0.8796
605	0.898
596	0.913
587	0.9199
578	0.9059
569	0.8749
560	0.9399
551	0.9291
542	0.9439
533	0.9596
524	0.9583
515	0.9517
506	0.9421
497	0.9309
488	0.9184
479	0.9055
470	0.8918
