Infrared Spectrum: Ethylene, 1,1-difluoro-
Formula: C2 H2 F2
CAS: 75-38-7
State: GAS (50 mmHg, N2 ADDED, TOTAL PRESSURE 600 mmHg)
Class: COBLENTZ
Instrument: DOW KBr FOREPRISM-GRATING
Instrument parameters: GRATING CHANGED AT 5.0, 7.5, 15.0 MICRON
Sampling: TRANSMISSION
Path length: 5 CM
Resolution: 2
Origin: DOW CHEMICAL COMPANY
1/CM	TRANSMITTANCE
455	0.7961
464	0.8026
473	0.8124
482	0.822
491	0.83
500	0.8331
509	0.83
518	0.8258
527	0.8145
536	0.7732
545	0.7203
554	0.644
563	0.6989
572	0.7404
581	0.8111
590	0.8271
599	0.8284
608	0.8275
617	0.827
626	0.8248
635	0.8228
644	0.8333
653	0.8361
662	0.8353
671	0.8477
680	0.8288
689	0.8239
698	0.8194
707	0.8155
716	0.8106
725	0.807
734	0.8041
743	0.8018
752	0.7768
761	0.7508
770	0.572
779	0.3816
788	0.3497
797	0.3933
806	0.1585
815	0.4369
824	0.2112
833	0.4337
842	0.6808
851	0.7727
860	0.7936
869	0.7945
878	0.7883
887	0.7594
896	0.61
905	0.272
914	0.1125
923	0.117
932	0.1334
941	0.0484
950	0.2861
959	0.3825
968	0.4554
977	0.5905
986	0.7317
995	0.7837
1004	0.8014
1013	0.8082
1022	0.812
1031	0.812
1040	0.8113
1049	0.8104
1058	0.8082
1067	0.8059
1076	0.8047
1085	0.8058
1094	0.8087
1103	0.8085
1112	0.808
1121	0.8072
1130	0.8063
1139	0.8049
1148	0.806
1157	0.8077
1166	0.8066
1175	0.803
1184	0.8024
1193	0.7941
1202	0.7622
1211	0.7496
1220	0.7157
1229	0.7523
1238	0.7518
1247	0.7547
1256	0.6917
1265	0.5571
1274	0.252
1283	0.0337
1292	0.0134
1301	0.0196
1310	0.0097
1319	0.0142
1328	0.092
1337	0.2859
1346	0.4929
1355	0.6862
1364	0.7451
1373	0.7288
1382	0.7361
1391	0.8006
1400	0.8075
1409	0.8093
1418	0.8089
1427	0.8172
1436	0.8336
1445	0.8419
1454	0.8461
1463	0.8463
1472	0.8446
1481	0.8395
1490	0.8385
1499	0.8437
1508	0.8496
1517	0.8451
1526	0.8472
1535	0.8496
1544	0.8482
1553	0.8446
1562	0.8417
1571	0.836
1580	0.8037
1589	0.6671
1598	0.4836
1607	0.5037
1616	0.4969
1625	0.443
1634	0.6914
1643	0.7768
1652	0.8388
1661	0.833
1670	0.8166
1679	0.7522
1688	0.66
1697	0.4189
1706	0.0775
1715	0.0137
1724	0.003
1733	0.0029
1742	0.0069
1751	0.0166
1760	0.0631
1769	0.6597
1778	0.7775
1787	0.828
1796	0.8384
1805	0.8403
1814	0.8386
1823	0.8318
1832	0.822
1841	0.8154
1850	0.8073
1859	0.7709
1868	0.7908
1877	0.8101
1886	0.7762
1895	0.7396
1904	0.7669
1913	0.7502
1922	0.7585
1931	0.8122
1940	0.8413
1949	0.8473
1958	0.8486
1967	0.8487
1976	0.8483
1985	0.8479
1994	0.8475
2003	0.8474
2012	0.8475
2021	0.8476
2030	0.8478
2039	0.848
2048	0.8481
2057	0.8483
2066	0.8481
2075	0.848
2084	0.8477
2093	0.8474
2102	0.8471
2111	0.8467
2120	0.8461
2129	0.8454
2138	0.8448
2147	0.8441
2156	0.8432
2165	0.8421
2174	0.8408
2183	0.8379
2192	0.8311
2201	0.8213
2210	0.8091
2219	0.8021
2228	0.7895
2237	0.791
2246	0.8046
2255	0.8062
2264	0.8092
2273	0.8198
2282	0.8354
2291	0.8414
2300	0.8445
2309	0.8469
2318	0.849
2327	0.851
2336	0.8527
2345	0.854
2354	0.8646
2363	0.8624
2372	0.8567
2381	0.8519
2390	0.8503
2399	0.8501
2408	0.8499
2417	0.8497
2426	0.8498
2435	0.8499
2444	0.8501
2453	0.8501
2462	0.85
2471	0.8499
2480	0.8498
2489	0.8491
2498	0.8484
2507	0.8477
2516	0.8467
2525	0.8457
2534	0.8447
2543	0.8432
2552	0.8407
2561	0.8333
2570	0.8241
2579	0.8133
2588	0.8075
2597	0.8054
2606	0.8071
2615	0.8176
2624	0.8102
2633	0.7966
2642	0.7792
2651	0.7672
2660	0.7677
2669	0.7852
2678	0.8099
2687	0.8325
2696	0.8443
2705	0.8475
2714	0.8488
2723	0.8496
2732	0.8504
2741	0.8511
2750	0.8512
2759	0.851
2768	0.851
2777	0.8512
2786	0.8513
2795	0.8514
2804	0.8516
2813	0.8517
2822	0.8519
2831	0.852
2840	0.8522
2849	0.8523
2858	0.8525
2867	0.852
2876	0.8515
2885	0.851
2894	0.8506
2903	0.8502
2912	0.8499
2921	0.8497
2930	0.8494
2939	0.8495
2948	0.85
2957	0.8503
2966	0.8506
2975	0.85
2984	0.8492
2993	0.8485
3002	0.8469
3011	0.8449
3020	0.8381
3029	0.8253
3038	0.8086
3047	0.8024
3056	0.8019
3065	0.8014
3074	0.8074
3083	0.811
3092	0.8103
3101	0.8115
3110	0.8173
3119	0.8283
3128	0.8385
3137	0.8416
3146	0.8418
3155	0.8422
3164	0.8439
3173	0.8469
3182	0.8505
3191	0.8547
3200	0.8552
3209	0.855
3218	0.855
3227	0.8551
3236	0.8551
3245	0.8551
3254	0.8552
3263	0.8552
3272	0.8554
3281	0.8557
3290	0.856
3299	0.8561
3308	0.8561
3317	0.8561
3326	0.856
3335	0.8559
3344	0.8566
3353	0.8575
3362	0.8583
3371	0.8583
3380	0.8583
3389	0.8584
3398	0.8582
3407	0.8565
3416	0.8524
3425	0.8465
3434	0.8424
3443	0.8415
3452	0.8431
3461	0.8465
3470	0.8528
3479	0.858
3488	0.8603
3497	0.861
3506	0.8614
3515	0.8611
3524	0.8606
3533	0.8606
3542	0.8609
3551	0.8625
3560	0.8637
3569	0.8635
3578	0.863
3587	0.8623
3596	0.8679
3605	0.8679
3614	0.8626
3623	0.8624
3632	0.8639
3641	0.863
3650	0.8629
3659	0.8629
3668	0.8598
3677	0.8569
3686	0.8599
3695	0.8627
3704	0.8634
3713	0.8643
3722	0.8657
3731	0.8656
3740	0.8615
3749	0.8602
3758	0.8597
3767	0.8602
3776	0.8635
