Infrared Spectrum: Ethene, 1,1-difluoro-
Formula: C 2 H 2 F 2
CAS: 75-38-7
State: gas
Origin: Sadtler Research Labs Under US-EPA Contract
1/CM	ABSORBANCE
450	0
462	0.0326636
474	0.0361584
486	0.0306473
498	0.0277573
510	0.0322603
522	0.0340078
534	0.0427449
546	0.051146
558	0.0415352
570	0.0493986
582	0.0366961
594	0.0278245
606	0.0310506
618	0.0308489
630	0.0306473
642	0.0323947
654	0.0286982
666	0.0293703
678	0.0313866
690	0.0261443
702	0.0301768
714	0.0326636
726	0.0291687
738	0.0350831
750	0.041804
762	0.0501379
774	0.103972
786	0.106862
798	0.125815
810	0.0767527
822	0.161167
834	0.110895
846	0.0592783
858	0.0428121
870	0.0335373
882	0.0403926
894	0.0896568
906	0.190336
918	0.21144
930	0.228914
942	0.314471
954	0.139795
966	0.096781
978	0.0661337
990	0.0413335
1002	0.0322603
1014	0.0301768
1026	0.0297064
1038	0.0294375
1050	0.0298408
1062	0.0292359
1074	0.028631
1086	0.0294375
1098	0.0295048
1110	0.0294375
1122	0.0293703
1134	0.0293703
1146	0.0300424
1158	0.0297736
1170	0.0299752
1182	0.0307817
1194	0.0350831
1206	0.0400566
1218	0.0399894
1230	0.0432154
1242	0.0491298
1254	0.080382
1266	0.200283
1278	0.417973
1290	0.528128
1302	0.543586
1314	0.641241
1326	0.326837
1338	0.144567
1350	0.0706367
1362	0.0484577
1374	0.0485921
1386	0.0448956
1398	0.0380403
1410	0.0368977
1422	0.0361584
1434	0.0348143
1446	0.0313194
1458	0.0334701
1470	0.0301768
1482	0.0298408
1494	0.0309833
1506	0.0322603
1518	0.0327308
1530	0.0321931
1542	0.034075
1554	0.0321931
1566	0.0324619
1578	0.0422073
1590	0.0680827
1602	0.0881782
1614	0.0939582
1626	0.0998726
1638	0.0750725
1650	0.0519526
1662	0.0395189
1674	0.052087
1686	0.103972
1698	0.246724
1710	0.474428
1722	0.606292
1734	0.616777
1746	0.554609
1758	0.383427
1770	0.0985284
1782	0.0399894
1794	0.034411
1806	0.0315882
1818	0.031185
1830	0.0338061
1842	0.0350159
1854	0.037301
1866	0.0393845
1878	0.0356208
1890	0.0429466
1902	0.0404598
1914	0.0409303
1926	0.0410647
1938	0.0330668
1950	0.0293703
1962	0.0284966
1974	0.028295
1986	0.0282278
1998	0.0282278
2010	0.0277573
2022	0.0280934
2034	0.0283622
2046	0.028295
2058	0.0282278
2070	0.0282278
2082	0.0282278
2094	0.0278245
2106	0.0278917
2118	0.0282278
2130	0.028295
2142	0.0283622
2154	0.0289671
2166	0.0293703
2178	0.0297064
2190	0.031521
2202	0.0330668
2214	0.0347471
2226	0.0361584
2238	0.0362929
2250	0.0342094
2262	0.0338733
2274	0.0309161
2286	0.0285638
2298	0.0272196
2310	0.0256738
2322	0.0262787
2334	0.0276901
2346	0.0283622
2358	0.0273541
2370	0.0283622
2382	0.0275557
2394	0.0279589
2406	0.0280262
2418	0.0278245
2430	0.0280262
2442	0.0279589
2454	0.028295
2466	0.0283622
2478	0.0280262
2490	0.0280934
2502	0.0279589
2514	0.0280262
2526	0.0280934
2538	0.0285638
2550	0.0295048
2562	0.0307145
2574	0.0319915
2586	0.0323947
2598	0.0332685
2610	0.0338061
2622	0.0336717
2634	0.0354864
2646	0.0375026
2658	0.0387796
2670	0.0358896
2682	0.0320587
2694	0.0297736
2706	0.028631
2718	0.0284294
2730	0.0279589
2742	0.0281606
2754	0.0280262
2766	0.0280934
2778	0.0281606
2790	0.0280262
2802	0.0278245
2814	0.0278245
2826	0.0279589
2838	0.0279589
2850	0.028295
2862	0.0276901
2874	0.0278917
2886	0.0276901
2898	0.0275557
2910	0.0278245
2922	0.0280262
2934	0.0279589
2946	0.0279589
2958	0.0283622
2970	0.0278245
2982	0.0278245
2994	0.0284294
3006	0.0284966
3018	0.0292359
3030	0.0314538
3042	0.032798
3054	0.0337389
3066	0.0339405
3078	0.0350159
3090	0.0334701
3102	0.0337389
3114	0.0321931
3126	0.0305129
3138	0.0295048
3150	0.0291687
3162	0.0286982
3174	0.0285638
3186	0.0280934
3198	0.0276229
3210	0.0272869
3222	0.0272196
3234	0.0273541
3246	0.0267492
3258	0.0272196
3270	0.0270852
3282	0.0274885
3294	0.0268164
3306	0.0274213
3318	0.027018
3330	0.0272869
3342	0.0270852
3354	0.0269508
3366	0.026682
3378	0.0268836
3390	0.0266148
3402	0.0265476
3414	0.0256066
3426	0.0271524
3438	0.0276229
3450	0.0274885
3462	0.0276901
3474	0.0276901
3486	0.0260771
3498	0.0255394
3510	0.0266148
3522	0.0267492
3534	0.0275557
3546	0.0274213
3558	0.0275557
3570	0.0272869
3582	0.0270852
3594	0.0273541
3606	0.0271524
3618	0.0266148
3630	0.0268836
3642	0.0269508
3654	0.0276901
3666	0.0262787
3678	0.0277573
3690	0.0268836
3702	0.0272869
3714	0.0280262
3726	0.0267492
3738	0.0273541
3750	0.0276901
3762	0.0265476
3774	0.0264131
3786	0.0264131
3798	0.0269508
3810	0.0258755
3822	0.0274885
3834	0.0271524
3846	0.0266148
3858	0.0269508
3870	0.0268164
3882	0.0255394
3894	0.0265476
3906	0.0269508
3918	0.0262787
3930	0.027018
3942	0.0261443
3954	0.0269508
3966	0.0280262
