Infrared Spectrum: Dichlorodifluoromethane
Formula: C Cl 2 F 2
CAS: 75-71-8
State: gas
Origin: Sadtler Research Labs Under US-EPA Contract
1/CM	ABSORBANCE
450	0.00118466
462	0.0185992
474	0.00438324
486	0.00710796
498	0.00912188
510	0.00710796
522	0.00793722
534	0.0052125
546	0.0052125
558	0.00509404
570	0.00296165
582	0.00414631
594	0.00639716
606	0.00497557
618	0.00544944
630	0.00687103
642	0.00947728
654	0.0287872
666	0.0447801
678	0.0351844
690	0.0120835
702	0.00509404
714	0.00580483
726	0.00651563
738	0.0052125
750	0.00580483
762	0.00651563
774	0.00450171
786	0.00497557
798	0.00497557
810	0.00319858
822	0.00817415
834	0.0107804
846	0.0260625
858	0.0831631
870	0.20388
882	0.301378
894	0.281949
906	0.530491
918	0.968104
930	0.963839
942	0.0916927
954	0.00568637
966	0.00533097
978	0.00473864
990	0.00473864
1002	0.00402784
1014	0.00426478
1026	0.00580483
1038	0.0059233
1050	0.0114912
1062	0.0390938
1074	0.186939
1086	0.591382
1098	0.926049
1110	0.745151
1122	0.273775
1134	0.258019
1146	0.569821
1158	0.756524
1170	0.31891
1182	0.0839924
1194	0.0140975
1206	0.0118466
1218	0.00888495
1230	0.0124389
1242	0.0161114
1254	0.00900342
1266	0.00450171
1278	0.00379091
1290	0.00367245
1302	0.00426478
1314	0.00462017
1326	0.00533097
1338	0.0066341
1350	0.00651563
1362	0.00710796
1374	0.00829262
1386	0.00758182
1398	0.00473864
1410	0.00390938
1422	0.00272472
1434	0.00331705
1446	0.00272472
1458	0.00248779
1470	0.00308012
1482	0.00331705
1494	0.00296165
1506	0.00319858
1518	0.00343551
1530	0.00308012
1542	0.00379091
1554	0.00248779
1566	0.00438324
1578	0.00497557
1590	0.00568637
1602	0.00426478
1614	0.00272472
1626	0.00225085
1638	0.00331705
1650	0.00272472
1662	0.00284318
1674	0.00248779
1686	0.00284318
1698	0.00284318
1710	0.00284318
1722	0.00248779
1734	0.00272472
1746	0.00426478
1758	0.00462017
1770	0.00355398
1782	0.00355398
1794	0.00355398
1806	0.00379091
1818	0.00343551
1830	0.00355398
1842	0.00390938
1854	0.00272472
1866	0.00213239
1878	0.00260625
1890	0.00213239
1902	0.00189546
1914	0.00213239
1926	0.00189546
1938	0.00201392
1950	0.00225085
1962	0.00189546
1974	0.00165852
1986	0.00177699
1998	0.00189546
2010	0.00236932
2022	0.00177699
2034	0.00213239
2046	0.00189546
2058	0.00165852
2070	0.00177699
2082	0.00177699
2094	0.00154006
2106	0.00154006
2118	0.00165852
2130	0.00154006
2142	0.00189546
2154	0.00177699
2166	0.00319858
2178	0.00485711
2190	0.0066341
2202	0.00651563
2214	0.00568637
2226	0.00852955
2238	0.0112543
2250	0.0113727
2262	0.00544944
2274	0.00248779
2286	0.00296165
2298	0.00533097
2310	0.00698949
2322	0.00485711
2334	0.00284318
2346	0.00177699
2358	0.00189546
2370	0.00213239
2382	0.00236932
2394	0.00189546
2406	0.00177699
2418	0.00154006
2430	0.00130313
2442	0.00130313
2454	0.00106619
2466	0.000947728
2478	0.00106619
2490	0.000947728
2502	0.00130313
2514	0.00118466
2526	0.000947728
2538	0.00130313
2550	0.000947728
2562	0.000947728
2574	0.00106619
2586	0.000710796
2598	0.00106619
2610	0.00106619
2622	0.00106619
2634	0.000947728
2646	0.00059233
2658	0.000947728
2670	0.000710796
2682	0.00106619
2694	0.000710796
2706	0.00059233
2718	0.000829262
2730	0.000947728
2742	0.000473864
2754	0.00059233
2766	0.000710796
2778	0.000473864
2790	0.000236932
2802	0.000947728
2814	0.00059233
2826	0.00059233
2838	0.000710796
2850	0.00059233
2862	0.000829262
2874	0.000829262
2886	0.000710796
2898	0.000710796
2910	0.00118466
2922	0.00106619
2934	0.000947728
2946	0.00106619
2958	0.00118466
2970	0.000710796
2982	0.000829262
2994	0.00106619
3006	0.00118466
3018	0.00118466
3030	0.00142159
3042	0.000947728
3054	0.00130313
3066	0.00130313
3078	0.00142159
3090	0.00130313
3102	0.00154006
3114	0.00130313
3126	0.00165852
3138	0.00130313
3150	0.00130313
3162	0.00165852
3174	0.00142159
3186	0.00154006
3198	0.00106619
3210	0.00165852
3222	0.00177699
3234	0.00130313
3246	0.00165852
3258	0.00142159
3270	0.00154006
3282	0.00130313
3294	0.00213239
3306	0.00225085
3318	0.00177699
3330	0.00177699
3342	0.00177699
3354	0.00177699
3366	0.00248779
3378	0.00177699
3390	0.00189546
3402	0.00213239
3414	0.00177699
3426	0.00201392
3438	0.00225085
3450	0.00213239
3462	0.00201392
3474	0.00248779
3486	0.00213239
3498	0.00165852
3510	0.00130313
3522	0.00130313
3534	0.00225085
3546	0.00177699
3558	0.00248779
3570	0.00213239
3582	0.00201392
3594	0.000355398
3606	0.00331705
3618	0.00248779
3630	0.000236932
3642	0.00213239
3654	0.00248779
3666	0.00402784
3678	0.00130313
3690	0.00236932
3702	0.00201392
3714	0.00260625
3726	0.00236932
3738	0.00177699
3750	0.00248779
3762	0.00248779
3774	0.00343551
3786	0.00284318
3798	0.00177699
3810	0.00343551
3822	0.00165852
3834	0.00402784
3846	0.00296165
3858	0.00213239
3870	0.00213239
3882	0.00355398
3894	0.00260625
3906	0.00284318
3918	0.00177699
3930	0.00130313
3942	0.00390938
3954	0.00236932
3966	0.00225085
