Infrared Spectrum: Methane, dichlorodifluoro-
Formula: C Cl2 F2
CAS: 75-71-8
State: GAS (100 mmHg, N2 ADDED, TOTAL PRESSURE 600 mmHg)
Class: COBLENTZ
Instrument: DOW KBr FOREPRISM-GRATING
Instrument parameters: GRATING CHANGED AT 5.0, 7.5, 15.0 MICRON
Sampling: TRANSMISSION
Path length: 5 CM
Resolution: 2
Origin: DOW CHEMICAL COMPANY
1/CM	TRANSMITTANCE
453	0.8808
462	0.8941
471	0.9094
480	0.9245
489	0.9382
498	0.9482
507	0.9502
516	0.9482
525	0.9466
534	0.9441
543	0.9406
552	0.9401
561	0.9465
570	0.9551
579	0.9618
588	0.9658
597	0.9691
606	0.9703
615	0.9634
624	0.9606
633	0.956
642	0.9401
651	0.823
660	0.5103
669	0.4041
678	0.4534
687	0.7723
696	0.8993
705	0.8916
714	0.8726
723	0.8629
732	0.86
741	0.8537
750	0.8422
759	0.844
768	0.8484
777	0.8537
786	0.8527
795	0.8504
804	0.8481
813	0.8465
822	0.8316
831	0.8003
840	0.7393
849	0.7006
858	0.4079
867	0.061
876	0.0049
885	0.0031
894	0.0119
903	0.0001
912	0.0001
921	0
930	0.0002
939	0.4037
948	0.8394
957	0.852
966	0.8568
975	0.859
984	0.8567
993	0.8599
1002	0.86
1011	0.8611
1020	0.8644
1029	0.8586
1038	0.8525
1047	0.841
1056	0.7912
1065	0.5682
1074	0.1301
1083	0.0054
1092	0.0061
1101	0.0073
1110	0.0089
1119	0.0128
1128	0.0289
1137	0.018
1146	0.0033
1155	0.0054
1164	0.0072
1173	0.0109
1182	0.431
1191	0.7603
1200	0.7592
1209	0.7878
1218	0.8106
1227	0.7652
1236	0.7205
1245	0.7426
1254	0.7877
1263	0.8521
1272	0.8625
1281	0.861
1290	0.8563
1299	0.8497
1308	0.8434
1317	0.8364
1326	0.8286
1335	0.8218
1344	0.8099
1353	0.8033
1362	0.7959
1371	0.7789
1380	0.7648
1389	0.7749
1398	0.8398
1407	0.8523
1416	0.8572
1425	0.8551
1434	0.8581
1443	0.8554
1452	0.8588
1461	0.8539
1470	0.8424
1479	0.8318
1488	0.8445
1497	0.8553
1506	0.8677
1515	0.8555
1524	0.8518
1533	0.845
1542	0.8542
1551	0.8433
1560	0.847
1569	0.8325
1578	0.8173
1587	0.7749
1596	0.79
1605	0.8424
1614	0.8512
1623	0.8527
1632	0.8537
1641	0.8528
1650	0.8575
1659	0.8543
1668	0.8577
1677	0.8564
1686	0.8614
1695	0.8643
1704	0.861
1713	0.8604
1722	0.8553
1731	0.8571
1740	0.8434
1749	0.8288
1758	0.8081
1767	0.8185
1776	0.8342
1785	0.8346
1794	0.8224
1803	0.8176
1812	0.8198
1821	0.8206
1830	0.82
1839	0.8189
1848	0.8304
1857	0.8427
1866	0.8511
1875	0.8498
1884	0.8491
1893	0.8493
1902	0.8502
1911	0.8507
1920	0.8509
1929	0.8512
1938	0.8513
1947	0.8515
1956	0.8517
1965	0.8522
1974	0.8527
1983	0.8525
1992	0.8525
2001	0.8525
2010	0.8529
2019	0.8532
2028	0.8536
2037	0.8538
2046	0.8537
2055	0.8536
2064	0.8538
2073	0.8543
2082	0.8544
2091	0.8544
2100	0.8545
2109	0.8543
2118	0.8542
2127	0.8536
2136	0.853
2145	0.8526
2154	0.8515
2163	0.8475
2172	0.8308
2181	0.8039
2190	0.7692
2199	0.7489
2208	0.766
2217	0.8109
2226	0.803
2235	0.7414
2244	0.6799
2253	0.5958
2262	0.7717
2271	0.8296
2280	0.83
2289	0.8388
2298	0.8256
2307	0.7804
2316	0.7675
2325	0.8119
2334	0.8631
2343	0.8708
2352	0.8732
2361	0.8811
2370	0.8794
2379	0.8666
2388	0.861
2397	0.8597
2406	0.8595
2415	0.8588
2424	0.8588
2433	0.8588
2442	0.8589
2451	0.8591
2460	0.8593
2469	0.8594
2478	0.8594
2487	0.8594
2496	0.8595
2505	0.8596
2514	0.8597
2523	0.8599
2532	0.86
2541	0.86
2550	0.8601
2559	0.8601
2568	0.8601
2577	0.8604
2586	0.8608
2595	0.8611
2604	0.8615
2613	0.8619
2622	0.862
2631	0.862
2640	0.8622
2649	0.8622
2658	0.8623
2667	0.8624
2676	0.8626
2685	0.8628
2694	0.8629
2703	0.8631
2712	0.8633
2721	0.8634
2730	0.8635
2739	0.8636
2748	0.8637
2757	0.8638
2766	0.8639
2775	0.8639
2784	0.864
2793	0.8642
2802	0.8644
2811	0.8645
2820	0.8647
2829	0.8649
2838	0.865
2847	0.8652
2856	0.8654
2865	0.8655
2874	0.8659
2883	0.8661
2892	0.8665
2901	0.8668
2910	0.8671
2919	0.8674
2928	0.8677
2937	0.8678
2946	0.8679
2955	0.868
2964	0.8681
2973	0.8682
2982	0.8683
2991	0.8685
3000	0.8687
3009	0.8689
3018	0.8691
3027	0.8693
3036	0.8696
3045	0.8697
3054	0.87
3063	0.8701
3072	0.87
3081	0.8699
3090	0.8699
3099	0.8697
3108	0.8697
3117	0.8696
3126	0.8695
3135	0.8694
3144	0.8694
3153	0.8695
3162	0.8698
3171	0.8699
3180	0.8702
3189	0.8703
3198	0.8706
3207	0.8708
3216	0.871
3225	0.8712
3234	0.8712
3243	0.8712
3252	0.8713
3261	0.8713
3270	0.8713
3279	0.8712
3288	0.87
3297	0.8687
3306	0.8687
3315	0.8691
3324	0.8697
3333	0.8705
3342	0.8716
3351	0.8723
3360	0.8725
3369	0.871
3378	0.8699
3387	0.8705
3396	0.8729
3405	0.8769
3414	0.8793
3423	0.8784
3432	0.8778
3441	0.8792
3450	0.886
3459	0.8756
3468	0.875
3477	0.876
3486	0.8768
3495	0.8775
3504	0.8781
3513	0.8782
3522	0.8784
3531	0.8785
3540	0.8788
3549	0.879
3558	0.8792
3567	0.8794
3576	0.8797
3585	0.88
3594	0.8803
3603	0.8806
3612	0.881
3621	0.8807
3630	0.8811
3639	0.8821
3648	0.8816
3657	0.8852
3666	0.884
3675	0.8799
3684	0.877
3693	0.8799
3702	0.8821
3711	0.8835
3720	0.8849
3729	0.886
3738	0.886
3747	0.8846
3756	0.8829
3765	0.8812
3774	0.88
3783	0.8819
3792	0.8819
