Infrared Spectrum: 1,3-Butadiene
Formula: C 4 H 6
CAS: 106-99-0
State: gas
Origin: Sadtler Research Labs Under US-EPA Contract
1/CM	ABSORBANCE
450	0
462	0.0153216
474	0.0238298
486	0.0212704
498	0.0250748
510	0.035589
522	0.04887
534	0.0302282
546	0.033998
558	0.0224809
570	0.0187456
582	0.0139382
594	0.00909612
606	0.0106871
618	0.00878484
630	0.00743599
642	0.0081623
654	0.00778185
666	0.00798937
678	0.00833523
690	0.00619089
702	0.00601796
714	0.00764351
726	0.00636382
738	0.0081623
750	0.00712472
762	0.00508414
774	0.00836981
786	0.00664051
798	0.00702096
810	0.0116555
822	0.0110329
834	0.0163246
846	0.0312657
858	0.0463452
870	0.0878139
882	0.136788
894	0.145227
906	0.292632
918	0.188943
930	0.204645
942	0.155222
954	0.105522
966	0.0738411
978	0.0710742
990	0.0927942
1002	0.121259
1014	0.152178
1026	0.0952498
1038	0.0837327
1050	0.0672352
1062	0.0423678
1074	0.0281876
1086	0.017708
1098	0.0105487
1110	0.00705554
1122	0.00670968
1134	0.00581045
1146	0.00536083
1158	0.00539542
1170	0.00522249
1182	0.00539542
1194	0.00577586
1206	0.00556835
1218	0.00632924
1230	0.0074014
1242	0.00895777
1254	0.0110329
1266	0.0116555
1278	0.0141111
1290	0.0115863
1302	0.012278
1314	0.0110329
1326	0.00999535
1338	0.00940739
1350	0.0108254
1362	0.0206133
1374	0.0246598
1386	0.0218238
1398	0.0203366
1410	0.0150449
1422	0.0144224
1434	0.0135577
1446	0.0134885
1458	0.0118284
1470	0.0123126
1482	0.011863
1494	0.0118284
1506	0.0100991
1518	0.00868109
1530	0.00733223
1542	0.00798937
1554	0.0103758
1566	0.026562
1578	0.0832485
1590	0.104657
1602	0.105591
1614	0.0685149
1626	0.0148374
1638	0.0117247
1650	0.0109983
1662	0.00788561
1674	0.0074014
1686	0.0069172
1698	0.00709013
1710	0.00670968
1722	0.00781644
1734	0.00999535
1746	0.0109292
1758	0.0115517
1770	0.0111713
1782	0.0109292
1794	0.0176389
1806	0.0558564
1818	0.0555797
1830	0.074187
1842	0.0326492
1854	0.0115517
1866	0.0091307
1878	0.00830064
1890	0.00854274
1902	0.0074014
1914	0.00722847
1926	0.00774726
1938	0.00781644
1950	0.00906153
1962	0.0100991
1974	0.0088886
1986	0.00778185
1998	0.00653675
2010	0.00598338
2022	0.00560293
2034	0.0056721
2046	0.0056721
2058	0.00556835
2070	0.00587962
2082	0.00570669
2094	0.00608714
2106	0.0056721
2118	0.00587962
2130	0.00570669
2142	0.00549917
2154	0.00598338
2166	0.00570669
2178	0.00563752
2190	0.00574128
2202	0.00598338
2214	0.00563752
2226	0.00577586
2238	0.00608714
2250	0.00629465
2262	0.00653675
2274	0.00650217
2286	0.00598338
2298	0.00511873
2310	0.00522249
2322	0.0051879
2334	0.00536083
2346	0.00612172
2358	0.00508414
2370	0.00536083
2382	0.00504956
2394	0.00560293
2406	0.00591421
2418	0.00560293
2430	0.00570669
2442	0.00605255
2454	0.00632924
2466	0.00636382
2478	0.0069172
2490	0.00670968
2502	0.00705554
2514	0.00636382
2526	0.00612172
2538	0.0056721
2550	0.00587962
2562	0.00619089
2574	0.00612172
2586	0.00601796
2598	0.00560293
2610	0.00539542
2622	0.00546459
2634	0.00543
2646	0.00539542
2658	0.00546459
2670	0.00577586
2682	0.0056721
2694	0.00587962
2706	0.00574128
2718	0.00598338
2730	0.00605255
2742	0.00560293
2754	0.00594879
2766	0.00577586
2778	0.00563752
2790	0.00608714
2802	0.00581045
2814	0.00546459
2826	0.00581045
2838	0.00594879
2850	0.00677886
2862	0.00709013
2874	0.00733223
2886	0.00792019
2898	0.00909612
2910	0.0115171
2922	0.0126239
2934	0.0167396
2946	0.0199215
2958	0.0288447
2970	0.0481437
2982	0.0527091
2994	0.0798591
3006	0.080032
3018	0.078026
3030	0.0754321
3042	0.0797207
3054	0.0709359
3066	0.0935205
3078	0.105972
3090	0.119218
3102	0.088056
3114	0.105038
3126	0.053297
3138	0.0341018
3150	0.0217546
3162	0.0144569
3174	0.0098916
3186	0.00792019
3198	0.00702096
3210	0.00646758
3222	0.00657134
3234	0.00736682
3246	0.0066751
3258	0.00574128
3270	0.00608714
3282	0.00525707
3294	0.00570669
3306	0.00605255
3318	0.00532624
3330	0.00581045
3342	0.00605255
3354	0.00608714
3366	0.00591421
3378	0.00574128
3390	0.00657134
3402	0.00660593
3414	0.00636382
3426	0.00653675
3438	0.00629465
3450	0.00587962
3462	0.00653675
3474	0.00605255
3486	0.00574128
3498	0.00688261
3510	0.00539542
3522	0.00664051
3534	0.00598338
3546	0.00601796
3558	0.00546459
3570	0.00622548
3582	0.00591421
3594	0.0069172
3606	0.00574128
3618	0.00629465
3630	0.00629465
3642	0.00591421
3654	0.00587962
3666	0.00574128
3678	0.00598338
3690	0.00591421
3702	0.00598338
3714	0.00581045
3726	0.0056721
3738	0.00619089
3750	0.00574128
3762	0.00560293
3774	0.00653675
3786	0.00650217
3798	0.00549917
3810	0.00556835
3822	0.00522249
3834	0.00629465
3846	0.00546459
3858	0.00674427
3870	0.00612172
3882	0.00677886
3894	0.00511873
3906	0.00612172
3918	0.00622548
3930	0.00546459
3942	0.0066751
3954	0.00605255
3966	0.00615631
