Infrared Spectrum: 2-Pentanone
Formula: C 5 H 10 O
CAS: 107-87-9
State: gas
Origin: Sadtler Research Labs Under US-EPA Contract
1/CM	ABSORBANCE
450	0.0131532
462	0.00599058
474	0.0138044
486	0.00761846
498	0.0101579
510	0.0191438
522	0.0257855
534	0.020381
546	0.0165392
558	0.00488362
570	0.010744
582	0.0307343
594	0.0324273
606	0.0184275
618	0.00612081
630	0.0157578
642	0.00729288
654	0.00826961
666	0.00729288
678	0.00983237
690	0.01133
702	0.0115254
714	0.0196647
726	0.0236367
738	0.0202508
750	0.0171904
762	0.0139346
774	0.013023
786	0.0133486
798	0.0177764
810	0.0205763
822	0.0192089
834	0.0175811
846	0.0169299
858	0.0154323
870	0.0171252
882	0.0236367
894	0.0295622
906	0.0289762
918	0.0270878
930	0.0438224
942	0.0666778
954	0.0769659
966	0.0655708
978	0.0427806
990	0.0360737
1002	0.033404
1014	0.0354877
1026	0.0332086
1038	0.0290413
1050	0.0261111
1062	0.0252646
1074	0.0305389
1086	0.0440177
1098	0.0567803
1110	0.0780078
1122	0.085496
1134	0.0838681
1146	0.111412
1158	0.202833
1170	0.246851
1182	0.19808
1194	0.123588
1206	0.0818496
1218	0.0595802
1230	0.0622499
1242	0.0671987
1254	0.0640732
1266	0.061729
1278	0.061143
1290	0.0604918
1302	0.0552175
1314	0.0511153
1326	0.0632918
1338	0.10731
1350	0.202833
1362	0.285594
1374	0.250628
1386	0.136155
1398	0.0998864
1410	0.0966307
1422	0.105226
1434	0.108807
1446	0.111347
1458	0.126779
1470	0.111021
1482	0.079245
1494	0.0455154
1506	0.031125
1518	0.0253949
1530	0.0209019
1542	0.020967
1554	0.0178415
1566	0.0155625
1578	0.0153671
1590	0.0133486
1602	0.0122416
1614	0.0126323
1626	0.0119812
1638	0.01413
1650	0.0145206
1662	0.0175159
1674	0.0287808
1686	0.0518967
1698	0.105421
1710	0.256423
1722	0.528669
1734	0.641773
1746	0.540389
1758	0.216963
1770	0.0716916
1782	0.0319063
1794	0.019795
1806	0.0126974
1818	0.00826961
1830	0.00703242
1842	0.00527431
1854	0.00416736
1866	0.00410225
1878	0.00371156
1890	0.00358133
1902	0.00364644
1914	0.00358133
1926	0.00345109
1938	0.00364644
1950	0.00286506
1962	0.00201856
1974	0.00188834
1986	0.00156276
1998	0.00175811
2010	0.00182322
2022	0.00182322
2034	0.00156276
2046	0.00091161
2058	0.000976725
2070	0.00117207
2082	0.00039069
2094	0.00091161
2106	0.0021488
2118	0.0021488
2130	0.00221391
2142	0.0021488
2154	0.00195345
2166	0.00169299
2178	0.00175811
2190	0.00169299
2202	0.00156276
2214	0.00117207
2226	0.00143253
2238	0.00110695
2250	0.00117207
2262	0.00104184
2274	0.00123719
2286	0.00104184
2298	0.000716265
2310	0.00091161
2322	0.000586035
2334	0.00286506
2346	0.00371156
2358	0.00026046
2370	0.00905099
2382	0.00573012
2394	0.00240925
2406	0.00188834
2418	0.00208368
2430	0.00149765
2442	0.00234414
2454	0.00175811
2466	0.00149765
2478	0.00182322
2490	0.00208368
2502	0.00182322
2514	0.0026046
2526	0.00279995
2538	0.00293018
2550	0.00351621
2562	0.00299529
2574	0.00227903
2586	0.00345109
2598	0.00384179
2610	0.00429759
2622	0.00514409
2634	0.00468828
2646	0.00579524
2658	0.0052092
2670	0.00481851
2682	0.00592547
2694	0.005665
2706	0.00586035
2718	0.00696731
2730	0.00898587
2742	0.0105486
2754	0.0117858
2766	0.0117207
2778	0.0121114
2790	0.0146509
2802	0.0202508
2814	0.0259809
2826	0.0326226
2838	0.0409573
2850	0.0531338
2862	0.0777473
2874	0.136481
2886	0.213773
2898	0.249716
2910	0.255902
2922	0.267362
2934	0.302003
2946	0.355463
2958	0.407164
2970	0.4868
2982	0.459907
2994	0.299659
3006	0.151653
3018	0.0892727
3030	0.0559338
3042	0.038483
3054	0.0320366
3066	0.0288459
3078	0.0250042
3090	0.0218135
3102	0.0175811
3114	0.0146509
3126	0.0115254
3138	0.0111998
3150	0.0115254
3162	0.0104835
3174	0.0106789
3186	0.00905099
3198	0.00833472
3210	0.00787892
3222	0.005665
3234	0.00462317
3246	0.00501386
3258	0.00371156
3270	0.00494874
3282	0.00384179
3294	0.0030604
3306	0.00410225
3318	0.00240925
3330	0.00234414
3342	0.00299529
3354	0.00253949
3366	0.00423248
3378	0.0039069
3390	0.00416736
3402	0.00384179
3414	0.00586035
3426	0.0102882
3438	0.0121765
3450	0.0156927
3462	0.0115254
3474	0.00696731
3486	0.00377667
3498	0.00221391
3510	0.00078138
3522	0.00136742
3534	0.00143253
3546	0.0021488
3558	0.00175811
3570	0.00384179
3582	0.00345109
3594	0.00279995
3606	0.000455805
3618	0.00266972
3630	0.00423248
3642	0.00449293
3654	0.00735799
3666	0.00533943
3678	0.00605569
3690	0.00462317
3702	0.00247437
3714	0.00573012
3726	0.00208368
3738	0.00332087
3750	0.00201856
3762	0.00429759
3774	0.00338598
3786	0.0030604
3798	0.00299529
3810	0.00429759
3822	0.00507897
3834	0.00514409
3846	0.00195345
3858	0.00436271
3870	0.00332087
3882	0.00573012
3894	0.00709754
3906	0.0030604
3918	0.00592547
3930	0.00540455
3942	0.00586035
3954	0.00853006
3966	0.00774868
