Infrared Spectrum: 2-PENTANONE
Formula: C5 H10 O
CAS: 107-87-9
State: GAS (20 mmHg, N2 ADDED, TOTAL PRESSURE 600 mmHg)
Class: COBLENTZ
Instrument: DOW KBr FOREPRISM-GRATING
Instrument parameters: GRATING CHANGED AT 5.0, 7.5, 15.0 MICRON
Sampling: TRANSMISSION
Path length: 5 CM
Resolution: 2
Origin: DOW CHEMICAL COMPANY
1/CM	TRANSMITTANCE
382.813	0.973
392.188	0.966
401.563	0.959
410.938	0.953
420.313	0.947
429.688	0.949
439.063	0.949
448.438	0.95
457.813	0.953
467.188	0.955
476.563	0.955
485.938	0.949
495.313	0.94
504.688	0.924
514.063	0.91
523.438	0.905
532.813	0.913
542.188	0.926
551.563	0.931
560.938	0.926
570.313	0.917
579.688	0.878
589.063	0.855
598.438	0.866
607.813	0.946
617.188	0.962
626.563	0.971
635.938	0.976
645.313	0.985
654.688	0.989
664.063	0.988
673.438	0.985
682.813	0.981
692.188	0.978
701.563	0.979
710.938	0.971
720.313	0.949
729.688	0.943
739.063	0.965
748.438	0.992
757.813	1.001
767.188	1.001
776.563	0.998
785.938	0.989
795.313	0.981
804.688	0.984
814.063	0.982
823.438	0.978
832.813	0.976
842.188	0.971
851.563	0.942
860.938	0.943
870.313	0.943
879.688	0.947
889.063	0.934
898.438	0.918
907.813	0.927
917.188	0.956
926.563	0.952
935.938	0.94
945.313	0.913
954.688	0.863
964.063	0.856
973.438	0.889
982.813	0.91
992.188	0.92
1001.56	0.927
1010.94	0.931
1020.31	0.937
1029.69	0.93
1039.06	0.933
1048.44	0.923
1057.81	0.921
1067.19	0.926
1076.56	0.923
1085.94	0.914
1095.31	0.904
1104.69	0.897
1114.06	0.902
1123.44	0.905
1132.81	0.9
1142.19	0.873
1151.56	0.772
1160.94	0.55
1170.31	0.452
1179.69	0.495
1189.06	0.686
1198.44	0.786
1207.81	0.836
1217.19	0.868
1226.56	0.862
1235.94	0.843
1245.31	0.842
1254.69	0.852
1264.06	0.843
1273.44	0.826
1282.81	0.821
1292.19	0.817
1301.56	0.821
1310.94	0.843
1320.31	0.868
1329.69	0.871
1339.06	0.811
1348.44	0.672
1357.81	0.502
1367.19	0.414
1376.56	0.472
1385.94	0.671
1395.31	0.775
1404.69	0.786
1414.06	0.755
1423.44	0.721
1432.81	0.723
1442.19	0.731
1451.56	0.72
1460.94	0.715
1470.31	0.757
1479.69	0.814
1489.06	0.859
1498.44	0.881
1507.81	0.879
1517.19	0.9
1526.56	0.901
1535.94	0.894
1545.31	0.895
1554.69	0.904
1564.06	0.898
1573.44	0.897
1582.81	0.917
1592.19	0.921
1601.56	0.924
1610.94	0.928
1620.31	0.91
1629.69	0.927
1639.06	0.915
1648.44	0.911
1657.81	0.907
1667.19	0.917
1676.56	0.897
1685.94	0.856
1695.31	0.863
1704.69	0.804
1714.06	0.6109
1723.44	0.3149
1732.81	0.165
1742.19	0.163
1751.56	0.3502
1760.94	0.6851
1770.31	0.85
1779.69	0.885
1789.06	0.898
1798.44	0.913
1807.81	0.923
1817.19	0.927
1826.56	0.927
1835.94	0.933
1845.31	0.927
1854.69	0.933
1864.06	0.933
1873.44	0.933
1882.81	0.934
1892.19	0.936
1901.56	0.934
1910.94	0.934
1920.31	0.931
1929.69	0.936
1939.06	0.934
1948.44	0.934
1957.81	0.936
1967.19	0.937
1976.56	0.937
1985.94	0.937
1995.31	0.936
2004.69	0.934
2014.06	0.934
2023.44	0.931
2032.81	0.93
2042.19	0.93
2051.56	0.93
2060.94	0.9305
2070.31	0.931
2079.69	0.931
2089.06	0.931
2098.44	0.933
2107.81	0.933
2117.19	0.9305
2126.56	0.928
2135.94	0.927
2145.31	0.927
2154.69	0.928
2164.06	0.93
2173.44	0.931
2182.81	0.931
2192.19	0.931
2201.56	0.9321
2210.94	0.9335
2220.31	0.934
2229.69	0.9334
2239.06	0.933
2248.44	0.931
2257.81	0.931
2267.19	0.9321
2276.56	0.934
2285.94	0.9349
2295.31	0.934
2304.69	0.934
2314.06	0.934
2323.44	0.934
2332.81	0.936
2342.19	0.936
2351.56	0.937
2360.94	0.939
2370.31	0.937
2379.69	0.94
2389.06	0.94
2398.44	0.94
2407.81	0.94
2417.19	0.942
2426.56	0.942
2435.94	0.942
2445.31	0.94
2454.69	0.94
2464.06	0.94
2473.44	0.942
2482.81	0.942
2492.19	0.943
2501.56	0.944
2510.94	0.944
2520.31	0.944
2529.69	0.943
2539.06	0.944
2548.44	0.946
2557.81	0.946
2567.19	0.944
2576.56	0.943
2585.94	0.9436
2595.31	0.944
2604.69	0.944
2614.06	0.943
2623.44	0.943
2632.81	0.944
2642.19	0.9483
2651.56	0.949
2660.94	0.947
2670.31	0.947
2679.69	0.944
2689.06	0.943
2698.44	0.943
2707.81	0.943
2717.19	0.942
2726.56	0.9393
2735.94	0.937
2745.31	0.936
2754.69	0.936
2764.06	0.939
2773.44	0.939
2782.81	0.9363
2792.19	0.933
2801.56	0.9233
2810.94	0.9143
2820.31	0.9073
2829.69	0.904
2839.06	0.8956
2848.44	0.891
2857.81	0.8811
2867.19	0.8341
2876.56	0.7417
2885.94	0.5929
2895.31	0.5396
2904.69	0.5703
2914.06	0.5964
2923.44	0.5973
2932.81	0.5637
2942.19	0.5127
2951.56	0.4737
2960.94	0.4229
2970.31	0.3462
2979.69	0.2934
2989.06	0.3539
2998.44	0.5981
3007.81	0.7733
3017.19	0.7965
3026.56	0.8239
3035.94	0.874
3045.31	0.8962
3054.69	0.9073
3064.06	0.9162
3073.44	0.9238
3082.81	0.9308
3092.19	0.9368
3101.56	0.94
3110.94	0.9455
3120.31	0.95
3129.69	0.953
3139.06	0.952
3148.44	0.949
3157.81	0.949
3167.19	0.95
3176.56	0.952
3185.94	0.9558
3195.31	0.956
3204.69	0.957
3214.06	0.9598
3223.44	0.962
3232.81	0.963
3242.19	0.963
3251.56	0.963
3260.94	0.9622
3270.31	0.962
3279.69	0.962
3289.06	0.9646
3298.44	0.965
3307.81	0.965
3317.19	0.965
3326.56	0.966
3335.94	0.966
3345.31	0.966
3354.69	0.966
3364.06	0.965
3373.44	0.962
3382.81	0.962
3392.19	0.962
3401.56	0.963
3410.94	0.963
3420.31	0.959
3429.69	0.956
3439.06	0.9473
3448.44	0.9373
3457.81	0.939
3467.19	0.9437
3476.56	0.9558
3485.94	0.9629
3495.31	0.966
3504.69	0.966
3514.06	0.966
3523.44	0.9633
3532.81	0.9656
3542.19	0.968
3551.56	0.9689
3560.94	0.9663
3570.31	0.965
3579.69	0.968
3589.06	0.965
3598.44	0.968
3607.81	0.9632
3617.19	0.962
3626.56	0.9639
3635.94	0.9547
3645.31	0.9632
3654.69	0.9568
3664.06	0.9662
3673.44	0.9563
3682.81	0.9624
3692.19	0.9573
3701.56	0.9648
3710.94	0.9593
3720.31	0.9648
3729.69	0.9632
3739.06	0.9559
3748.44	0.9553
3757.81	0.9567
3767.19	0.968
3776.56	0.968
