Infrared Spectrum: 2-PENTANONE
Formula: C5 H10 O
CAS: 107-87-9
State: LIQUID
Class: COBLENTZ
Instrument: Not specified, most likely a prism, grating, or hybrid spectrometer.
Sampling: TRANSMISSION
Path length: 0.0025 CM
Resolution: 4
Origin: INFRACORD
MICROMETERS	TRANSMITTANCE
2.529	0.901
2.56438	0.901
2.59976	0.9
2.63514	0.897
2.67052	0.897
2.7059	0.897
2.74128	0.895
2.77666	0.891
2.81204	0.891
2.84742	0.888
2.8828	0.88
2.91818	0.849
2.95356	0.877
2.98894	0.891
3.02432	0.891
3.0597	0.891
3.09508	0.888
3.13046	0.881
3.16584	0.877
3.20122	0.871
3.2366	0.852
3.27198	0.832
3.30736	0.75
3.34274	0.511
3.37812	0.341
3.4135	0.476
3.44888	0.561
3.48426	0.557
3.51964	0.793
3.55502	0.839
3.5904	0.866
3.62578	0.877
3.66116	0.88
3.69654	0.886
3.73192	0.89
3.7673	0.888
3.80268	0.892
3.83806	0.895
3.87344	0.895
3.90882	0.895
3.9442	0.894
3.97959	0.893
4.01497	0.894
4.05035	0.894
4.08573	0.893
4.12111	0.893
4.15649	0.894
4.19187	0.895
4.22725	0.898
4.26263	0.897
4.29801	0.894
4.33339	0.893
4.36877	0.892
4.40415	0.89
4.43953	0.89
4.47491	0.89
4.51029	0.89
4.54567	0.887
4.58105	0.885
4.61643	0.888
4.65181	0.887
4.68719	0.886
4.72257	0.886
4.75795	0.888
4.79333	0.888
4.82871	0.887
4.86409	0.888
4.89947	0.887
4.93485	0.888
4.97023	0.888
5.00561	0.888
5.04099	0.886
5.07637	0.885
5.11175	0.888
5.14713	0.888
5.18251	0.888
5.21789	0.887
5.25327	0.886
5.28865	0.886
5.32403	0.885
5.35941	0.885
5.39479	0.882
5.43017	0.88
5.46555	0.88
5.50093	0.875
5.53631	0.866
5.57169	0.86
5.60707	0.845
5.64245	0.834
5.67783	0.815
5.71321	0.793
5.74859	0.743
5.78397	0.635
5.81935	0.323
5.85473	0.109
5.89011	0.166
5.92549	0.501
5.96087	0.68
5.99625	0.743
6.03163	0.795
6.06701	0.832
6.10239	0.841
6.13777	0.843
6.17315	0.851
6.20853	0.854
6.24391	0.856
6.27929	0.859
6.31467	0.864
6.35005	0.86
6.38543	0.858
6.42081	0.853
6.45619	0.849
6.49157	0.842
6.52695	0.852
6.56233	0.846
6.59771	0.841
6.63309	0.838
6.66847	0.839
6.70385	0.826
6.73923	0.809
6.77461	0.795
6.80999	0.752
6.84538	0.638
6.88076	0.589
6.91614	0.606
6.95152	0.634
6.9869	0.627
7.02228	0.606
7.05766	0.57
7.09304	0.552
7.12842	0.557
7.1638	0.617
7.19918	0.678
7.23456	0.657
7.26994	0.566
7.30532	0.471
7.3407	0.378
7.37608	0.355
7.41146	0.397
7.44684	0.489
7.48222	0.635
7.5176	0.741
7.55298	0.784
7.58836	0.794
7.62374	0.803
7.65912	0.806
7.6945	0.793
7.72988	0.762
7.76526	0.743
7.80064	0.754
7.83602	0.767
7.8714	0.757
7.90678	0.735
7.94216	0.761
7.97754	0.776
8.01292	0.773
8.0483	0.767
8.08368	0.754
8.11906	0.734
8.15444	0.747
8.18982	0.777
8.2252	0.797
8.26058	0.799
8.29596	0.783
8.33134	0.745
8.36672	0.719
8.4021	0.705
8.43748	0.678
8.47286	0.632
8.50824	0.563
8.54362	0.447
8.579	0.375
8.61438	0.433
8.64976	0.559
8.68514	0.674
8.72052	0.745
8.7559	0.784
8.79128	0.813
8.82666	0.828
8.86204	0.834
8.89742	0.83
8.9328	0.835
8.96818	0.822
9.00356	0.81
9.03894	0.808
9.07432	0.809
9.1097	0.813
9.14508	0.813
9.18046	0.81
9.21584	0.814
9.25122	0.834
9.2866	0.848
9.32198	0.854
9.35736	0.858
9.39274	0.855
9.42812	0.854
9.4635	0.856
9.49888	0.856
9.53426	0.852
9.56964	0.849
9.60502	0.848
9.6404	0.846
9.67578	0.848
9.71116	0.854
9.74655	0.855
9.78193	0.858
9.81731	0.858
9.85269	0.859
9.88807	0.858
9.92345	0.856
9.95883	0.86
9.99421	0.859
10.0296	0.853
10.065	0.852
10.1003	0.847
10.1357	0.836
10.1711	0.822
10.2065	0.815
10.2419	0.801
10.2772	0.784
10.3126	0.773
10.348	0.764
10.3834	0.756
10.4188	0.757
10.4541	0.773
10.4895	0.79
10.5249	0.814
10.5603	0.839
10.5957	0.845
10.631	0.847
10.6664	0.853
10.7018	0.858
10.7372	0.861
10.7726	0.867
10.8079	0.866
10.8433	0.865
10.8787	0.862
10.9141	0.859
10.9495	0.852
10.9848	0.845
11.0202	0.82
11.0556	0.79
11.091	0.789
11.1264	0.799
11.1618	0.804
11.1971	0.809
11.2325	0.812
11.2679	0.819
11.3033	0.835
11.3387	0.843
11.374	0.852
11.4094	0.854
11.4448	0.858
11.4802	0.858
11.5156	0.858
11.5509	0.855
11.5863	0.854
11.6217	0.854
11.6571	0.858
11.6925	0.855
11.7278	0.853
11.7632	0.855
11.7986	0.848
11.834	0.836
11.8694	0.838
11.9047	0.839
11.9401	0.84
11.9755	0.834
12.0109	0.834
12.0463	0.836
12.0816	0.841
12.117	0.84
12.1524	0.836
12.1878	0.839
12.2232	0.84
12.2585	0.838
12.2939	0.84
12.3293	0.84
12.3647	0.838
12.4001	0.842
12.4354	0.841
12.4708	0.839
12.5062	0.836
12.5416	0.834
12.577	0.834
12.6123	0.836
12.6477	0.839
12.6831	0.839
12.7185	0.838
12.7539	0.834
12.7892	0.833
12.8246	0.835
12.86	0.836
12.8954	0.836
12.9308	0.833
12.9661	0.834
13.0015	0.833
13.0369	0.832
13.0723	0.828
13.1077	0.827
13.143	0.828
13.1784	0.828
13.2138	0.826
13.2492	0.819
13.2846	0.814
13.3199	0.813
13.3553	0.81
13.3907	0.812
13.4261	0.801
13.4615	0.794
13.4968	0.79
13.5322	0.786
13.5676	0.78
13.603	0.774
13.6384	0.763
13.6737	0.738
13.7091	0.723
13.7445	0.706
13.7799	0.695
13.8153	0.703
13.8506	0.717
13.886	0.73
13.9214	0.744
13.9568	0.755
13.9922	0.76
14.0275	0.763
14.0629	0.768
14.0983	0.767
14.1337	0.764
14.1691	0.769
14.2044	0.77
14.2398	0.767
14.2752	0.765
14.3106	0.767
14.346	0.763
14.3813	0.76
14.4167	0.749
14.4521	0.748
14.4875	0.751
14.5229	0.75
14.5582	0.747
14.5936	0.739
14.629	0.738
14.6644	0.735
14.6998	0.731
14.7351	0.729
14.7705	0.728
14.8059	0.722
14.8413	0.713
14.8767	0.716
14.912	0.711
14.9474	0.706
14.9828	0.703
