Infrared Spectrum: 2-Propen-1-ol
Formula: C 3 H 6 O
CAS: 107-18-6
State: gas
Origin: Sadtler Research Labs Under US-EPA Contract
1/CM	ABSORBANCE
450	0.0254072
462	0.0242418
474	0.0208231
486	0.0199684
498	0.0214446
510	0.0236979
522	0.0292144
534	0.0334101
546	0.0445987
558	0.0422677
570	0.0365181
582	0.0375281
594	0.0334101
606	0.0367512
618	0.0390044
630	0.0365958
642	0.0308461
654	0.0244749
666	0.0166274
678	0.0140633
690	0.00955685
702	0.00574965
714	0.00334101
726	0.00248634
738	0.00163166
750	0.00163166
762	0.00194245
774	0.00038849
786	0.00101007
798	0.00341871
810	0.0037295
822	0.00668203
834	0.00940146
846	0.0170936
858	0.0297583
870	0.0521354
882	0.0968117
894	0.176064
906	0.275595
918	0.466576
930	0.391132
942	0.357722
954	0.301624
966	0.283675
978	0.356634
990	0.431379
1002	0.525394
1014	0.707673
1026	0.758721
1038	0.624148
1050	0.499754
1062	0.219885
1074	0.147471
1086	0.150035
1098	0.172878
1110	0.18259
1122	0.184688
1134	0.151433
1146	0.116547
1158	0.0916836
1170	0.0926937
1182	0.103727
1194	0.119422
1206	0.129989
1218	0.123928
1230	0.106602
1242	0.0874879
1254	0.0742793
1266	0.0687627
1278	0.0654994
1290	0.0684519
1302	0.0735023
1314	0.0787081
1326	0.0875656
1338	0.108
1350	0.14918
1362	0.190826
1374	0.192458
1386	0.181891
1398	0.155085
1410	0.167672
1422	0.16301
1434	0.150579
1446	0.11779
1458	0.0637124
1470	0.0482505
1482	0.0390044
1494	0.0240087
1506	0.0177928
1518	0.0111108
1530	0.00893527
1542	0.00978995
1554	0.0101007
1566	0.00753671
1578	0.00606044
1590	0.00574965
1602	0.0077698
1614	0.0129756
1626	0.0253295
1638	0.0369066
1650	0.0368289
1662	0.0360519
1674	0.0147626
1686	0.00505037
1698	0.0038072
1710	0.00225324
1722	0.00271943
1734	0.00707052
1746	0.00862448
1758	0.00870218
1770	0.00466188
1782	0.00194245
1794	0.00108777
1806	0.00202015
1818	0.00567195
1830	0.0134418
1842	0.0202792
1854	0.0249411
1866	0.0240087
1878	0.0158504
1890	0.00722591
1902	0.00318562
1914	0.00217554
1926	0.00271943
1938	0.00326332
1950	0.00458418
1962	0.00559426
1974	0.00668203
1986	0.00722591
1998	0.00621584
2010	0.00574965
2022	0.00520577
2034	0.00675973
2046	0.0079252
2058	0.00722591
2070	0.00637124
2082	0.0038849
2094	0.00194245
2106	0.00116547
2118	0.00101007
2130	0.00038849
2142	7.7698e-05
2154	7.7698e-05
2166	7.7698e-05
2178	7.7698e-05
2190	7.7698e-05
2202	0.000233094
2214	0.00038849
2226	0.000543886
2238	0.00116547
2250	0.00116547
2262	0.00124317
2274	0.00155396
2286	0.00178705
2298	0.00209785
2310	0.00217554
2322	0.00279713
2334	0.00248634
2346	0.00341871
2358	0.0037295
2370	0.0040403
2382	0.00419569
2394	0.0038849
2406	0.0039626
2418	0.0039626
2430	0.0038072
2442	0.00341871
2454	0.00318562
2466	0.00310792
2478	0.00310792
2490	0.0038072
2502	0.0037295
2514	0.00365181
2526	0.00365181
2538	0.0037295
2550	0.00326332
2562	0.00334101
2574	0.0037295
2586	0.00341871
2598	0.0038072
2610	0.0037295
2622	0.00427339
2634	0.00520577
2646	0.00551656
2658	0.00675973
2670	0.00722591
2682	0.00870218
2694	0.0102561
2706	0.0121986
2718	0.0145295
2730	0.0165497
2742	0.0180259
2754	0.0207454
2766	0.0237756
2778	0.0262619
2790	0.0309238
2802	0.0371396
2814	0.0495713
2826	0.072803
2838	0.110875
2850	0.173733
2862	0.240242
2874	0.278081
2886	0.298982
2898	0.290668
2910	0.275906
2922	0.258657
2934	0.243972
2946	0.214757
2958	0.181347
2970	0.161534
2982	0.15695
2994	0.144363
3006	0.149569
3018	0.12183
3030	0.0986765
3042	0.085157
3054	0.0735023
3066	0.0854678
3078	0.121287
3090	0.13636
3102	0.136748
3114	0.0982103
3126	0.047085
3138	0.0191914
3150	0.00870218
3162	0.00442879
3174	0.00240864
3186	0.00194245
3198	0.00139856
3210	0.00139856
3222	0.00038849
3234	0.00077698
3246	0.000932376
3258	0.00077698
3270	0.00077698
3282	0.000621584
3294	0.000932376
3306	0.000854678
3318	7.7698e-05
3330	0.000543886
3342	0.00101007
3354	0.00170936
3366	0.00295252
3378	0.00326332
3390	0.00326332
3402	0.00442879
3414	0.00512807
3426	0.00505037
3438	0.00543886
3450	0.00528346
3462	0.00427339
3474	0.00512807
3486	0.00512807
3498	0.00559426
3510	0.00512807
3522	0.00458418
3534	0.00551656
3546	0.00512807
3558	0.00505037
3570	0.00660433
3582	0.00808059
3594	0.0128202
3606	0.0209785
3618	0.0370619
3630	0.0605267
3642	0.0954131
3654	0.13263
3666	0.143353
3678	0.125948
3690	0.0871772
3702	0.0436663
3714	0.0186475
3726	0.00947916
3738	0.00699282
3750	0.00621584
3762	0.00567195
3774	0.00435109
3786	0.00505037
3798	0.00466188
3810	0.00660433
3822	0.00815829
3834	0.00893527
3846	0.00909067
3858	0.0110331
3870	0.0101784
3882	0.0104115
3894	0.00986765
3906	0.00870218
3918	0.00738131
3930	0.00574965
3942	0.00458418
3954	0.0039626
3966	0.00435109
