Infrared Spectrum: 2-PROPEN-1-OL
Formula: C3 H6 O
CAS: 107-18-6
State: GAS (13 mmHg, N2 ADDED, TOTAL PRESSURE 600 mmHg)
Class: COBLENTZ
Instrument: BECKMAN IR-9 (GRATING)
Instrument parameters: ORDER CHANGES: 670, 1200, 2000 CM^-^1
Sampling: TRANSMISSION
Path length: 100.0 CM CELL
Resolution: 2
Origin: DOW CHEMICAL COMPANY
1/CM	TRANSMITTANCE
392.32	0.56
401.28	0.548
410.24	0.512
419.2	0.489
428.16	0.481
437.12	0.477
446.08	0.485
455.04	0.512
464	0.538
472.96	0.554
481.92	0.56
490.88	0.57
499.84	0.574
508.8	0.584
517.76	0.5859
526.72	0.602
535.68	0.6
544.64	0.602
553.6	0.5279
562.561	0.656
571.521	0.704
580.481	0.7549
589.441	0.779
598.401	0.811
607.361	0.795
616.321	0.795
625.281	0.803
634.241	0.797
643.201	0.797
652.161	0.829
661.121	0.869
670.081	0.6603
679.041	0.648
688.001	0.666
696.961	0.69
705.921	0.722
714.881	0.753
723.841	0.785
732.801	0.805
741.761	0.833
750.721	0.873
759.681	0.889
768.641	0.909
777.601	0.929
786.561	0.941
795.521	0.941
804.481	0.945
813.441	0.951
822.401	0.949
831.361	0.945
840.321	0.931
849.281	0.919
858.241	0.891
867.201	0.819
876.161	0.7401
885.121	0.59
894.081	0.369
903.042	0.2321
912.002	0.0981
920.962	0.018
929.922	0.032
938.882	0.038
947.842	0.09
956.802	0.196
965.762	0.232
974.722	0.174
983.682	0.066
992.642	0.042
1001.6	0.038
1010.56	0.026
1019.52	0.01
1028.48	0.008
1037.44	0.004
1046.4	0.002
1055.36	0.1199
1064.32	0.4269
1073.28	0.522
1082.24	0.514
1091.2	0.371
1100.16	0.261
1109.12	0.234
1118.08	0.198
1127.04	0.224
1136	0.339
1144.96	0.453
1153.92	0.616
1162.88	0.65
1171.84	0.5921
1180.8	0.514
1189.76	0.435
1198.72	0.363
1207.68	0.365
1216.64	0.389
1225.6	0.457
1234.56	0.544
1243.52	0.602
1252.48	0.654
1261.44	0.672
1270.4	0.7
1279.36	0.706
1288.32	0.694
1297.28	0.67
1306.24	0.618
1315.2	0.608
1324.16	0.566
1333.12	0.534
1342.08	0.479
1351.04	0.2971
1360	0.166
1368.96	0.102
1377.92	0.132
1386.88	0.21
1395.84	0.283
1404.8	0.315
1413.76	0.23
1422.72	0.202
1431.68	0.22
1440.64	0.2569
1449.6	0.4769
1458.56	0.564
1467.52	0.618
1476.48	0.642
1485.44	0.728
1494.4	0.817
1503.36	0.871
1512.32	0.911
1521.28	0.919
1530.24	0.923
1539.2	0.909
1548.16	0.911
1557.12	0.895
1566.08	0.901
1575.04	0.909
1584	0.919
1592.96	0.923
1601.92	0.923
1610.88	0.911
1619.84	0.871
1628.8	0.7591
1637.76	0.648
1646.72	0.662
1655.68	0.644
1664.64	0.724
1673.6	0.903
1682.56	0.925
1691.52	0.941
1700.48	0.961
1709.44	0.955
1718.4	0.957
1727.36	0.955
1736.32	0.957
1745.28	0.955
1754.24	0.953
1763.2	0.955
1772.16	0.967
1781.12	0.965
1790.08	0.971
1799.04	0.967
1808	0.957
1816.96	0.933
1825.92	0.883
1834.88	0.841
1843.84	0.803
1852.8	0.759
1861.76	0.769
1870.72	0.801
1879.68	0.8591
1888.64	0.917
1897.6	0.937
1906.56	0.947
1915.52	0.951
1924.48	0.947
1933.44	0.937
1942.4	0.933
1951.36	0.915
1960.32	0.911
1969.28	0.907
1978.24	0.897
1987.2	0.895
1996.16	0.901
2005.12	0.905
2014.08	0.911
2023.04	0.9149
2032	0.911
2040.96	0.9052
2049.92	0.8792
2058.88	0.873
2067.84	0.873
2076.8	0.8883
2085.77	0.9102
2094.73	0.9206
2103.69	0.9275
2112.65	0.931
2121.61	0.929
2130.57	0.931
2139.53	0.933
2148.49	0.9363
2157.45	0.937
2166.41	0.935
2175.37	0.9368
2184.33	0.935
2193.29	0.935
2202.25	0.935
2211.21	0.933
2220.17	0.931
2229.13	0.927
2238.09	0.927
2247.05	0.925
2256.01	0.925
2264.97	0.9248
2273.93	0.9257
2282.89	0.925
2291.85	0.925
2300.81	0.925
2309.77	0.925
2318.73	0.925
2327.69	0.927
2336.65	0.9305
2345.61	0.931
2354.57	0.927
2363.53	0.925
2372.49	0.9283
2381.45	0.9263
2390.41	0.9138
2399.37	0.909
2408.33	0.905
2417.29	0.9031
2426.25	0.906
2435.21	0.911
2444.17	0.914
2453.13	0.915
2462.09	0.915
2471.05	0.9172
2480.01	0.917
2488.97	0.9152
2497.93	0.9143
2506.89	0.913
2515.85	0.909
2524.81	0.9074
2533.77	0.909
2542.73	0.9105
2551.69	0.9115
2560.65	0.915
2569.61	0.917
2578.57	0.917
2587.53	0.917
2596.49	0.917
2605.45	0.913
2614.41	0.9118
2623.37	0.9089
2632.33	0.9039
2641.29	0.901
2650.25	0.897
2659.21	0.891
2668.17	0.8841
2677.13	0.8751
2686.09	0.871
2695.05	0.8672
2704.01	0.8515
2712.97	0.8396
2721.93	0.8309
2730.89	0.8197
2739.85	0.8104
2748.81	0.7994
2757.77	0.7889
2766.73	0.7675
2775.69	0.7606
2784.65	0.7487
2793.61	0.7333
2802.57	0.7194
2811.53	0.6938
2820.49	0.6228
2829.45	0.5353
2838.41	0.3832
2847.37	0.252
2856.33	0.1171
2865.29	0.064
2874.25	0.048
2883.21	0.0341
2892.17	0.0418
2901.13	0.0576
2910.09	0.0717
2919.05	0.0871
2928.01	0.096
2936.97	0.0997
2945.93	0.106
2954.89	0.1261
2963.85	0.2015
2972.81	0.2292
2981.77	0.243
2990.73	0.2276
2999.69	0.2326
3008.65	0.22
3017.61	0.2274
3026.57	0.3287
3035.53	0.3913
3044.49	0.4367
3053.45	0.5389
3062.41	0.5589
3071.37	0.5011
3080.33	0.4036
3089.29	0.2509
3098.25	0.203
3107.21	0.2119
3116.17	0.3378
3125.13	0.4736
3134.09	0.6935
3143.05	0.8315
3152.01	0.8964
3160.97	0.9187
3169.93	0.9296
3178.89	0.931
3187.85	0.9336
3196.81	0.935
3205.77	0.937
3214.73	0.935
3223.69	0.939
3232.65	0.939
3241.61	0.9387
3250.57	0.937
3259.53	0.939
3268.49	0.937
3277.45	0.935
3286.41	0.9361
3295.37	0.937
3304.33	0.939
3313.29	0.941
3322.25	0.941
3331.21	0.941
3340.17	0.941
3349.13	0.941
3358.09	0.935
3367.05	0.9295
3376.01	0.923
3384.97	0.9214
3393.93	0.9164
3402.89	0.915
3411.85	0.9155
3420.81	0.919
3429.77	0.921
3438.73	0.921
3447.69	0.923
3456.65	0.923
3465.61	0.923
3474.57	0.921
3483.53	0.919
3492.49	0.917
3501.45	0.9231
3510.41	0.925
3519.37	0.929
3528.33	0.931
3537.29	0.923
3546.25	0.9201
3555.21	0.917
3564.17	0.917
3573.13	0.917
3582.09	0.915
3591.05	0.9113
3600.01	0.8943
3608.97	0.8577
3617.93	0.7504
3626.89	0.5804
3635.85	0.3955
3644.81	0.2989
3653.77	0.2474
3662.73	0.179
3671.69	0.1946
3680.65	0.2849
3689.61	0.448
3698.57	0.6423
3707.53	0.7738
3716.49	0.8819
3725.45	0.9191
3734.41	0.9271
3743.37	0.931
3752.33	0.934
3761.29	0.937
3770.25	0.9419
