Infrared Spectrum: 2-PROPEN-1-OL
Formula: C3 H6 O
CAS: 107-18-6
State: GAS (13 mmHg DILUTED TO A TOTAL PRESSURE OF 600 mmHg WITH N2)
Class: COBLENTZ
Instrument: BECKMAN IR-9 (GRATING)
Instrument parameters: ORDER CHANGES AT 670, 1200, 2000 CM^-^1
Sampling: TRANSMISSION
Path length: 100 CM CELL
Resolution: 4
Origin: DOW CHEMICAL COMPANY
1/CM	TRANSMITTANCE
398.35	0.555
407.233	0.53
416.117	0.5
425	0.486
433.883	0.479
442.766	0.483
451.65	0.505
460.533	0.54
469.416	0.547
478.299	0.566
487.183	0.574
496.066	0.576
504.949	0.574
513.832	0.574
522.716	0.585
531.599	0.598
540.482	0.603
549.365	0.577
558.249	0.619
567.132	0.674
576.015	0.727
584.898	0.759
593.782	0.801
602.665	0.817
611.548	0.8
620.431	0.8
629.315	0.803
638.198	0.793
647.081	0.804
655.964	0.837
664.848	0.871
673.731	0.878
682.614	0.883
691.497	0.89
700.381	0.897
709.264	0.904
718.147	0.915
727.03	0.919
735.914	0.923
744.797	0.927
753.68	0.93
762.563	0.933
771.447	0.937
780.33	0.941
789.213	0.944
798.096	0.947
806.98	0.95
815.863	0.951
824.746	0.95
833.629	0.94
842.513	0.93
851.396	0.915
860.279	0.862
869.163	0.801
878.046	0.721
886.929	0.524
895.812	0.317
904.696	0.186
913.579	0.077
922.462	0.023
931.345	0.031
940.229	0.047
949.112	0.103
957.995	0.2
966.878	0.238
975.762	0.167
984.645	0.069
993.528	0.047
1002.41	0.038
1011.29	0.026
1020.18	0.011
1029.06	0.005
1037.94	0.004
1046.83	0.002
1055.71	0.101
1064.59	0.385
1073.48	0.506
1082.36	0.526
1091.24	0.423
1100.13	0.288
1109.01	0.239
1117.89	0.213
1126.78	0.186
1135.66	0.315
1144.54	0.398
1153.43	0.574
1162.31	0.644
1171.19	0.631
1180.08	0.552
1188.96	0.495
1197.84	0.412
1206.73	0.358
1215.61	0.371
1224.49	0.426
1233.38	0.505
1242.26	0.577
1251.14	0.637
1260.03	0.663
1268.91	0.691
1277.79	0.706
1286.68	0.702
1295.56	0.681
1304.44	0.644
1313.33	0.61
1322.21	0.595
1331.09	0.536
1339.98	0.526
1348.86	0.397
1357.74	0.221
1366.62	0.163
1375.51	0.162
1384.39	0.139
1393.27	0.25
1402.16	0.311
1411.04	0.296
1419.92	0.211
1428.81	0.206
1437.69	0.234
1446.57	0.382
1455.46	0.548
1464.34	0.605
1473.22	0.631
1482.11	0.7
1490.99	0.795
1499.87	0.853
1508.76	0.886
1517.64	0.916
1526.52	0.921
1535.41	0.912
1544.29	0.907
1553.17	0.901
1562.06	0.901
1570.94	0.907
1579.82	0.915
1588.71	0.922
1597.59	0.925
1606.47	0.918
1615.36	0.901
1624.24	0.844
1633.12	0.706
1642.01	0.641
1650.89	0.657
1659.77	0.63
1668.66	0.803
1677.54	0.909
1686.42	0.934
1695.31	0.947
1704.19	0.957
1713.07	0.958
1721.95	0.958
1730.84	0.957
1739.72	0.958
1748.6	0.957
1757.49	0.955
1766.37	0.955
1775.25	0.958
1784.14	0.965
1793.02	0.966
1801.9	0.966
1810.79	0.955
1819.67	0.926
1828.55	0.882
1837.44	0.837
1846.32	0.792
1855.2	0.76
1864.09	0.77
1872.97	0.804
1881.85	0.873
1890.74	0.923
1899.62	0.94
1908.5	0.948
1917.39	0.948
1926.27	0.943
1935.15	0.936
1944.04	0.932
1952.92	0.915
1961.8	0.907
1970.69	0.903
1979.57	0.896
1988.45	0.897
1997.34	0.9
2006.22	0.904
2015.1	0.9115
2023.99	0.9145
2032.87	0.911
2041.75	0.8911
2050.64	0.8715
2059.52	0.872
2068.4	0.8725
2077.29	0.9019
2086.17	0.919
2095.05	0.9239
2103.93	0.9279
2112.82	0.93
2121.7	0.9294
2130.58	0.932
2139.47	0.9334
2148.35	0.939
2157.23	0.937
2166.12	0.936
2175	0.934
2183.88	0.936
2192.77	0.933
2201.65	0.9326
2210.53	0.9312
2219.42	0.9256
2228.3	0.923
2237.18	0.923
2246.07	0.922
2254.95	0.921
2263.83	0.9224
2272.72	0.925
2281.6	0.926
2290.48	0.925
2299.37	0.923
2308.25	0.923
2317.13	0.923
2326.02	0.9254
2334.9	0.926
2343.78	0.927
2352.67	0.925
2361.55	0.9237
2370.43	0.9264
2379.32	0.9226
2388.2	0.9116
2397.08	0.905
2405.97	0.903
2414.85	0.901
2423.73	0.905
2432.62	0.909
2441.5	0.912
2450.38	0.9143
2459.27	0.915
2468.15	0.916
2477.03	0.916
2485.91	0.9157
2494.8	0.914
2503.68	0.911
2512.56	0.909
2521.45	0.9064
2530.33	0.9073
2539.21	0.9096
2548.1	0.912
2556.98	0.914
2565.86	0.915
2574.75	0.915
2583.63	0.915
2592.51	0.914
2601.4	0.914
2610.28	0.911
2619.16	0.9085
2628.05	0.9025
2636.93	0.8977
2645.81	0.894
2654.7	0.8897
2663.58	0.885
2672.46	0.8787
2681.35	0.8705
2690.23	0.8688
2699.11	0.8545
2708	0.845
2716.88	0.8325
2725.76	0.822
2734.65	0.811
2743.53	0.8008
2752.41	0.7913
2761.3	0.7693
2770.18	0.763
2779.06	0.7536
2787.95	0.7358
2796.83	0.7304
2805.71	0.7029
2814.6	0.6488
2823.48	0.5601
2832.36	0.4498
2841.25	0.3129
2850.13	0.1592
2859.01	0.0795
2867.89	0.0547
2876.78	0.0394
2885.66	0.0344
2894.54	0.0482
2903.43	0.0662
2912.31	0.0772
2921.19	0.0903
2930.08	0.095
2938.96	0.0995
2947.84	0.1143
2956.73	0.1666
2965.61	0.2117
2974.49	0.25
2983.38	0.2346
2992.26	0.2209
3001.14	0.2622
3010.03	0.2181
3018.91	0.291
3027.79	0.3673
3036.68	0.3988
3045.56	0.5112
3054.44	0.563
3063.33	0.5122
3072.21	0.4361
3081.09	0.2775
3089.98	0.2106
3098.86	0.2097
3107.74	0.251
3116.63	0.3857
3125.51	0.649
3134.39	0.8222
3143.28	0.8913
3152.16	0.9155
3161.04	0.9263
3169.93	0.93
3178.81	0.932
3187.69	0.933
3196.58	0.934
3205.46	0.934
3214.34	0.934
3223.23	0.934
3232.11	0.934
3240.99	0.936
3249.87	0.937
3258.76	0.936
3267.64	0.934
3276.52	0.934
3285.41	0.936
3294.29	0.936
3303.17	0.937
3312.06	0.94
3320.94	0.94
3329.82	0.94
3338.71	0.939
3347.59	0.936
3356.47	0.93
3365.36	0.923
3374.24	0.919
3383.12	0.915
3392.01	0.912
3400.89	0.912
3409.77	0.914
3418.66	0.915
3427.54	0.918
3436.42	0.919
3445.31	0.919
3454.19	0.921
3463.07	0.919
3471.96	0.918
3480.84	0.9179
3489.72	0.919
3498.61	0.922
3507.49	0.925
3516.37	0.927
3525.26	0.9231
3534.14	0.921
3543.02	0.918
3551.91	0.916
3560.79	0.915
3569.67	0.914
3578.56	0.912
3587.44	0.9081
3596.32	0.8973
3605.2	0.8559
3614.09	0.7471
3622.97	0.585
3631.85	0.4109
3640.74	0.2936
3649.62	0.2431
3658.5	0.1871
3667.39	0.1746
3676.27	0.2532
3685.15	0.3746
3694.04	0.6067
3702.92	0.7875
3711.8	0.9064
3720.69	0.9176
3729.57	0.9256
3738.45	0.93
3747.34	0.933
3756.22	0.9357
3765.1	0.939
3773.99	0.9519
3782.87	0.9541
3791.75	0.951
