Infrared Spectrum: Methane, iodo-
Formula: C H 3 I
CAS: 74-88-4
State: gas
Origin: Sadtler Research Labs Under US-EPA Contract
1/CM	ABSORBANCE
450	0.00788014
462	0.00746849
474	0.01676
486	0.0140549
498	0.0256987
510	0.0452814
522	0.0459283
534	0.0364015
546	0.053632
558	0.0104088
570	0.00911509
582	0.0107029
594	0.003352
606	0.00482217
618	0.00570428
630	0.00276393
642	0.00717445
654	0.0041753
666	0.00476337
678	0.0102324
690	0.00699803
702	0.00435172
714	0.00729207
726	0.00546905
738	0.00582189
750	0.00870344
762	0.0058807
774	0.00823298
786	0.0111733
798	0.0175833
810	0.0260515
822	0.0355194
834	0.0362839
846	0.0588658
858	0.0799775
870	0.0845645
882	0.104676
894	0.0849761
906	0.0917389
918	0.0667459
930	0.0682161
942	0.0449285
954	0.0411061
966	0.026816
978	0.0193475
990	0.0144077
1002	0.0114674
1014	0.00846821
1026	0.00899747
1038	0.00823298
1050	0.00805656
1062	0.0084094
1074	0.00782133
1086	0.00346961
1098	0.00458695
1110	0.00329319
1122	0.00394007
1134	0.00488098
1146	0.00305796
1158	0.00446933
1170	0.00511621
1182	0.00341081
1194	0.00735087
1206	0.0346373
1218	0.140608
1230	0.373542
1242	0.424881
1254	0.334729
1266	0.58807
1278	0.148723
1290	0.0154074
1302	0.0194063
1314	0.0219938
1326	0.032285
1338	0.0305208
1350	0.0248166
1362	0.0331083
1374	0.0424587
1386	0.0522206
1398	0.068569
1410	0.0790954
1422	0.0906216
1434	0.0646289
1446	0.121201
1458	0.0599243
1470	0.084094
1482	0.0830355
1494	0.0630999
1506	0.07098
1518	0.0479277
1530	0.0458107
1542	0.035637
1554	0.0241109
1566	0.0195827
1578	0.0154074
1590	0.00940912
1602	0.00835059
1614	0.00846821
1626	0.00935031
1638	0.0121142
1650	0.0101736
1662	0.00576309
1674	0.00987958
1686	0.014937
1698	0.0150546
1710	0.00158779
1722	0.00211705
1734	0.00964435
1746	0.00541024
1758	0.00570428
1770	0.0107029
1782	0.0102324
1794	0.0109381
1806	0.00470456
1818	0.00405768
1830	0.00640996
1842	0.006704
1854	0.00305796
1866	0.00517502
1878	0.00364603
1890	0.00458695
1902	0.00346961
1914	0.00452814
1926	0.00376365
1938	0.00441053
1950	0.00405768
1962	0.00341081
1974	0.00405768
1986	0.00346961
1998	0.00258751
2010	0.0025287
2022	0.00199944
2034	0.0025287
2046	0.00429291
2058	0.00446933
2070	0.00799775
2082	0.0116438
2094	0.0116438
2106	0.0104676
2118	0.0105265
2130	0.0114086
2142	0.0101736
2154	0.0102912
2166	0.00846821
2178	0.00729207
2190	0.00635116
2202	0.00652758
2214	0.00576309
2226	0.00576309
2238	0.00529263
2250	0.00611593
2262	0.00735087
2274	0.00740968
2286	0.00699803
2298	0.00499859
2310	0.00346961
2322	0.00564547
2334	0.00535144
2346	0.00276393
2358	0.00599831
2370	0.000235228
2382	0.00141137
2394	0.00511621
2406	0.00446933
2418	0.00411649
2430	0.00523382
2442	0.00782133
2454	0.0122319
2466	0.0212881
2478	0.0227583
2490	0.0211117
2502	0.033814
2514	0.00217586
2526	0.00176421
2538	0.00158779
2550	0.00152898
2562	0.00176421
2574	0.000940912
2586	0.0017054
2598	0.0016466
2610	0.00158779
2622	0.00199944
2634	0.00429291
2646	0.00382246
2658	0.00476337
2670	0.00746849
2682	0.0058807
2694	0.00405768
2706	0.00288154
2718	0.00264632
2730	0.00246989
2742	0.00317558
2754	0.00270512
2766	0.00288154
2778	0.0050574
2790	0.00470456
2802	0.00887986
2814	0.0161719
2826	0.0274629
2838	0.0276393
2850	0.033814
2862	0.021935
2874	0.0208765
2886	0.0141137
2898	0.00470456
2910	0.00476337
2922	0.00658638
2934	0.0310501
2946	0.149605
2958	0.260339
2970	0.146371
2982	0.299269
2994	0.170834
3006	0.0409297
3018	0.018877
3030	0.0211705
3042	0.0139961
3054	0.016466
3066	0.0290507
3078	0.0184654
3090	0.0196415
3102	0.0205825
3114	0.0179949
3126	0.0141725
3138	0.0131728
3150	0.0107029
3162	0.00576309
3174	0.0075861
3186	0.00411649
3198	0.00288154
3210	0.00529263
3222	0.00364603
3234	0.00352842
3246	0.00429291
3258	0.0042341
3270	0.00329319
3282	0.00470456
3294	0.00411649
3306	0.0041753
3318	0.0041753
3330	0.00270512
3342	0.00464575
3354	0.00441053
3366	0.00476337
3378	0.003352
3390	0.00464575
3402	0.00311677
3414	0.00446933
3426	0.00493979
3438	0.00305796
3450	0.00388126
3462	0.00394007
3474	0.00435172
3486	0.00511621
3498	0.0050574
3510	0.00358723
3522	0.00517502
3534	0.00394007
3546	0.000999719
3558	0.00323439
3570	0.00346961
3582	0.00564547
3594	0.0041753
3606	0.00241109
3618	0.00405768
3630	0.00611593
3642	0.00323439
3654	0.00329319
3666	0.00458695
3678	0.00593951
3690	0.00858582
3702	0.0050574
3714	0.00646877
3726	0.00294035
3738	0.00288154
3750	0.00593951
3762	0.00493979
3774	0.00523382
3786	0.00352842
3798	0.0075273
3810	0.00158779
3822	0.00558667
3834	0.00605712
3846	0.00488098
3858	0.00493979
3870	0.00746849
3882	0.00188182
3894	0.00546905
3906	0.00446933
3918	0.0147606
3930	0.0130552
3942	0.0114086
3954	0.00811537
3966	0.00817417
