Infrared Spectrum: METHYL IODIDE
Formula: C H3 I
CAS: 74-88-4
State: LIQUID
Class: COBLENTZ
Instrument: Not specified, most likely a prism, grating, or hybrid spectrometer.
Sampling: TRANSMISSION
Path length: 0.003 CM
Resolution: 4
Origin: WYANDOTTE CHEMICALS CORP., WYANDOTTE, MICHIGAN, USA
MICROMETERS	TRANSMITTANCE
2.02	0.937
2.06074	0.933
2.10148	0.923
2.14222	0.855
2.18295	0.889
2.22369	0.892
2.26443	0.901
2.30517	0.921
2.34591	0.921
2.38665	0.916
2.42738	0.913
2.46812	0.887
2.50886	0.892
2.5496	0.913
2.59034	0.916
2.63108	0.925
2.67182	0.918
2.71255	0.914
2.75329	0.911
2.79403	0.903
2.83477	0.906
2.87551	0.886
2.91625	0.88
2.95699	0.88
2.99772	0.877
3.03846	0.87
3.0792	0.863
3.11994	0.848
3.16068	0.828
3.20142	0.818
3.24215	0.801
3.28289	0.784
3.32363	0.761
3.36437	0.447
3.40511	0.763
3.44585	0.801
3.48659	0.811
3.52732	0.794
3.56806	0.792
3.6088	0.843
3.64954	0.858
3.69028	0.862
3.73102	0.869
3.77175	0.869
3.81249	0.87
3.85323	0.87
3.89397	0.872
3.93471	0.87
3.97545	0.869
4.01619	0.867
4.05692	0.812
4.09766	0.801
4.1384	0.858
4.17914	0.863
4.21988	0.863
4.26062	0.874
4.30136	0.882
4.34209	0.874
4.38283	0.855
4.42357	0.85
4.46431	0.853
4.50505	0.863
4.54579	0.87
4.58652	0.869
4.62726	0.862
4.668	0.867
4.70874	0.86
4.74948	0.823
4.79022	0.838
4.83096	0.853
4.87169	0.848
4.91243	0.865
4.95317	0.862
4.99391	0.862
5.03465	0.858
5.07539	0.86
5.11612	0.858
5.15686	0.857
5.1976	0.855
5.23834	0.857
5.27908	0.855
5.31982	0.853
5.36056	0.85
5.40129	0.852
5.44203	0.85
5.48277	0.85
5.52351	0.845
5.56425	0.846
5.60499	0.836
5.64573	0.829
5.68646	0.818
5.7272	0.821
5.76794	0.814
5.80868	0.821
5.84942	0.828
5.89016	0.829
5.93089	0.829
5.97163	0.826
6.01237	0.819
6.05311	0.818
6.09385	0.818
6.13459	0.816
6.17533	0.812
6.21606	0.811
6.2568	0.809
6.29754	0.804
6.33828	0.795
6.37902	0.787
6.41976	0.778
6.46049	0.768
6.50123	0.755
6.54197	0.753
6.58271	0.727
6.62345	0.709
6.66419	0.693
6.70493	0.683
6.74566	0.663
6.7864	0.627
6.82714	0.593
6.86788	0.561
6.90862	0.501
6.94936	0.43
6.9901	0.411
7.03083	0.469
7.07157	0.508
7.11231	0.53
7.15305	0.549
7.19379	0.591
7.23453	0.639
7.27526	0.668
7.316	0.693
7.35674	0.704
7.39748	0.722
7.43822	0.732
7.47896	0.739
7.5197	0.744
7.56043	0.744
7.60117	0.743
7.64191	0.739
7.68265	0.739
7.72339	0.729
7.76413	0.726
7.80486	0.707
7.8456	0.693
7.88634	0.661
7.92708	0.593
7.96782	0.442
8.00856	0.117
8.0493	0.035
8.09003	0.129
8.13077	0.442
8.17151	0.6
8.21225	0.673
8.25299	0.702
8.29373	0.731
8.33447	0.743
8.3752	0.761
8.41594	0.773
8.45668	0.777
8.49742	0.78
8.53816	0.777
8.5789	0.77
8.61963	0.787
8.66037	0.797
8.70111	0.801
8.74185	0.799
8.78259	0.782
8.82333	0.792
8.86407	0.797
8.9048	0.799
8.94554	0.799
8.98628	0.802
9.02702	0.809
9.06776	0.792
9.1085	0.787
9.14923	0.784
9.18997	0.79
9.23071	0.787
9.27145	0.784
9.31219	0.784
9.35293	0.797
9.39367	0.789
9.4344	0.79
9.47514	0.789
9.51588	0.782
9.55662	0.773
9.59736	0.777
9.6381	0.78
9.67883	0.784
9.71957	0.787
9.76031	0.789
9.80105	0.787
9.84179	0.789
9.88253	0.792
9.92327	0.79
9.964	0.799
10.0047	0.789
10.0455	0.789
10.0862	0.784
10.127	0.78
10.1677	0.778
10.2084	0.773
10.2492	0.772
10.2899	0.763
10.3307	0.758
10.3714	0.753
10.4121	0.741
10.4529	0.729
10.4936	0.731
10.5343	0.727
10.5751	0.721
10.6158	0.712
10.6566	0.702
10.6973	0.697
10.738	0.68
10.7788	0.673
10.8195	0.659
10.8603	0.647
10.901	0.639
10.9417	0.622
10.9825	0.602
11.0232	0.579
11.0639	0.559
11.1047	0.517
11.1454	0.472
11.1862	0.421
11.2269	0.363
11.2676	0.321
11.3084	0.289
11.3491	0.297
11.3899	0.326
11.4306	0.379
11.4713	0.433
11.5121	0.481
11.5528	0.528
11.5935	0.556
11.6343	0.581
11.675	0.602
11.7158	0.624
11.7565	0.639
11.7972	0.658
11.838	0.663
11.8787	0.673
11.9195	0.68
11.9602	0.688
12.0009	0.692
12.0417	0.693
12.0824	0.702
12.1231	0.707
12.1639	0.719
12.2046	0.717
12.2454	0.719
12.2861	0.724
12.3268	0.724
12.3676	0.731
12.4083	0.732
12.4491	0.734
12.4898	0.738
12.5305	0.738
12.5713	0.732
12.612	0.729
12.6527	0.738
12.6935	0.739
12.7342	0.741
12.775	0.741
12.8157	0.748
12.8564	0.75
12.8972	0.753
12.9379	0.756
12.9787	0.761
13.0194	0.76
13.0601	0.76
13.1009	0.765
13.1416	0.763
13.1823	0.767
13.2231	0.763
13.2638	0.768
13.3046	0.767
13.3453	0.767
13.386	0.77
13.4268	0.77
13.4675	0.768
13.5083	0.772
13.549	0.772
13.5897	0.777
13.6305	0.777
13.6712	0.778
13.7119	0.777
13.7527	0.778
13.7934	0.777
13.8342	0.78
13.8749	0.778
13.9156	0.775
13.9564	0.773
13.9971	0.777
14.0379	0.775
14.0786	0.777
14.1193	0.777
14.1601	0.777
14.2008	0.777
14.2415	0.777
14.2823	0.777
14.323	0.778
14.3638	0.775
14.4045	0.778
14.4452	0.777
14.486	0.775
14.5267	0.772
14.5675	0.772
14.6082	0.77
14.6489	0.77
14.6897	0.767
14.7304	0.76
14.7711	0.763
14.8119	0.768
14.8526	0.768
14.8934	0.767
14.9341	0.76
14.9748	0.758
15.0156	0.744
15.0563	0.741
15.0971	0.75
15.1378	0.755
15.1785	0.755
15.2193	0.746
15.26	0.75
15.3007	0.746
15.3415	0.741
15.3822	0.739
15.423	0.743
15.4637	0.736
15.5044	0.738
15.5452	0.734
15.5859	0.734
15.6267	0.724
15.6674	0.727
15.7081	0.729
15.7489	0.727
15.7896	0.721
15.8303	0.721
15.8711	0.717
15.9118	0.715
15.9526	0.715
15.9933	0.717
