Infrared Spectrum: 2-Bromo-2-methylbutane
Formula: C 5 H 11 Br
CAS: 507-36-8
State: gas
Instrument: HP-GC/MS/IRD
Origin: NIST Mass Spectrometry Data Center
1/CM	ABSORBANCE
550	0.0004378
562	0.0002926
574	0.0003993
586	0.0004444
598	0.0004741
610	0.00044
622	0.00011
634	6.38e-05
646	6.38e-05
658	0.0001034
670	0.00011
682	3.08e-05
694	7.81e-05
706	0.000143
718	0.0001452
730	0.0001518
742	0.0003003
754	0.0006787
766	0.0009889
778	0.0010945
790	0.0012727
802	0.0013519
814	0.00066
826	0.0003069
838	8.58e-05
850	5.72e-05
862	0.0001353
874	0.0002442
886	0.000275
898	0.0003773
910	0.0005082
922	0.0004565
934	0.000187
946	9.9e-05
958	0.0001265
970	0.0001551
982	0.00022
994	0.0005434
1006	0.0007469
1018	0.0007381
1030	0.0005654
1042	0.0005907
1054	0.0008734
1066	0.0007282
1078	0.0004807
1090	0.0006369
1102	0.0014751
1114	0.003157
1126	0.0047168
1138	0.005071
1150	0.0040711
1162	0.0015345
1174	0.0011968
1186	0.0011396
1198	0.0009592
1210	0.0008426
1222	0.0008844
1234	0.0006138
1246	0.0003091
1258	0.0003047
1270	0.0006039
1282	0.0010329
1294	0.0009702
1306	0.0005434
1318	0.0003751
1330	0.0004851
1342	0.0006336
1354	0.0011385
1366	0.0020482
1378	0.0030943
1390	0.0028853
1402	0.0015037
1414	0.0007799
1426	0.0009262
1438	0.001606
1450	0.0025905
1462	0.002992
1474	0.0022033
1486	0.0011704
1498	0.0006479
1510	0.000506
1522	0.0004983
1534	0.0004422
1546	0.0004521
1558	0.0004477
1570	0.0004048
1582	0.0003619
1594	0.0002519
1606	0.0001892
1618	0.0001837
1630	0.0001375
1642	0.0002002
1654	0.0001947
1666	0.0001309
1678	7.48e-05
1690	6.05e-05
1702	8.69e-05
1714	5.17e-05
1726	3.3e-06
1738	0
1750	1.87e-05
1762	2.2e-05
1774	8.36e-05
1786	7.7e-05
1798	9.35e-05
1810	0.0001001
1822	0.0001177
1834	8.36e-05
1846	8.47e-05
1858	8.8e-05
1870	8.91e-05
1882	9.46e-05
1894	6.6e-05
1906	5.94e-05
1918	7.81e-05
1930	7.04e-05
1942	6.93e-05
1954	4.73e-05
1966	5.17e-05
1978	7.7e-05
1990	4.84e-05
2002	4.95e-05
2014	5.61e-05
2026	3.74e-05
2038	2.2e-05
2050	2.75e-05
2062	5.39e-05
2074	3.08e-05
2086	4.51e-05
2098	4.4e-05
2110	6.49e-05
2122	6.05e-05
2134	7.37e-05
2146	6.38e-05
2158	6.38e-05
2170	6.05e-05
2182	7.04e-05
2194	8.25e-05
2206	4.18e-05
2218	4.4e-05
2230	2.53e-05
2242	4.95e-05
2254	3.63e-05
2266	3.41e-05
2278	5.5e-05
2290	5.72e-05
2302	8.03e-05
2314	7.81e-05
2326	4.95e-05
2338	5.06e-05
2350	4.73e-05
2362	5.94e-05
2374	3.19e-05
2386	6.05e-05
2398	6.71e-05
2410	0.0001012
2422	5.28e-05
2434	6.71e-05
2446	4.95e-05
2458	5.17e-05
2470	3.63e-05
2482	1.87e-05
2494	3.63e-05
2506	4.18e-05
2518	3.08e-05
2530	3.85e-05
2542	5.72e-05
2554	9.57e-05
2566	9.57e-05
2578	6.6e-05
2590	8.91e-05
2602	9.35e-05
2614	0.0001045
2626	0.0001056
2638	8.69e-05
2650	8.03e-05
2662	0.0001496
2674	0.0001562
2686	0.0001386
2698	0.0001342
2710	0.0001474
2722	0.0002145
2734	0.0002849
2746	0.0002574
2758	0.0002167
2770	0.0002893
2782	0.0003069
2794	0.0003322
2806	0.0004147
2818	0.0005192
2830	0.0007502
2842	0.0014102
2854	0.0020966
2866	0.0026796
2878	0.003685
2890	0.0051007
2902	0.0057519
2914	0.0058938
2926	0.0067727
2938	0.0076087
2950	0.0066176
2962	0.0070543
2974	0.0101123
2986	0.0107635
2998	0.0068442
3010	0.0030932
3022	0.0011143
3034	0.0007579
3046	0.0006072
3058	0.0005236
3070	0.0005148
3082	0.0005313
3094	0.0004763
3106	0.0003476
3118	0.0002618
3130	0.0002376
3142	0.0002596
3154	0.0002585
3166	0.0002299
3178	0.0002046
3190	0.0001837
3202	0.0002024
3214	0.000154
3226	0.0002376
3238	0.0001815
3250	0.0001562
3262	0.0001826
3274	0.0001408
3286	8.36e-05
3298	0.000121
3310	5.06e-05
3322	4.4e-05
3334	8.36e-05
3346	0.0001056
3358	7.15e-05
3370	0.0001122
3382	0.0001276
3394	0.000165
3406	9.24e-05
3418	0.0001463
3430	0.0001331
3442	8.69e-05
3454	5.72e-05
3466	8.36e-05
3478	0.0001232
3490	0.0001056
3502	0.0001606
3514	0.000132
3526	0.0001463
3538	9.13e-05
3550	0.00011
3562	9.24e-05
3574	0.0001034
3586	0.0001089
3598	0.000132
3610	9.02e-05
3622	0.0001254
3634	0.0001452
3646	0.0001562
3658	0.0001254
3670	0.0001221
3682	0.0001276
3694	0.000121
3706	7.37e-05
3718	0.0001364
3730	0.0001188
3742	0.0001111
3754	0.0001309
3766	0.0001177
3778	6.38e-05
3790	0.0001881
3802	0.000132
3814	8.69e-05
3826	0.0001034
3838	0.0001265
