Infrared Spectrum: 1-CHLORO-2-IODOETHANE
Formula: C2 H4 Cl I
CAS: 624-70-4
State: LIQUID
Class: COBLENTZ
Instrument: Not specified, most likely a prism, grating, or hybrid spectrometer.
Sampling: TRANSMISSION
Path length: 0.005 CM
Resolution: 4
Origin: ANDERSON PHYSICAL LABORATORY
1/CM	TRANSMITTANCE
668.961	0.505
677.409	0.545
685.857	0.4901
694.305	0.2391
702.753	0.051
711.202	0.037
719.65	0.0999
728.098	0.2479
736.546	0.303
744.994	0.231
753.442	0.366
761.89	0.5739
770.338	0.7049
778.786	0.753
787.234	0.756
795.683	0.736
804.131	0.666
812.579	0.556
821.027	0.342
829.475	0.139
837.923	0.526
846.371	0.7479
854.819	0.803
863.267	0.816
871.716	0.809
880.164	0.798
888.612	0.774
897.06	0.738
905.508	0.637
913.956	0.496
922.404	0.681
930.852	0.753
939.3	0.81
947.749	0.845
956.197	0.849
964.645	0.846
973.093	0.845
981.541	0.842
989.989	0.834
998.437	0.801
1006.89	0.742
1015.33	0.63
1023.78	0.631
1032.23	0.59
1040.68	0.554
1049.13	0.3961
1057.57	0.213
1066.02	0.583
1074.47	0.642
1082.92	0.666
1091.37	0.669
1099.81	0.625
1108.26	0.4731
1116.71	0.455
1125.16	0.548
1133.61	0.604
1142.05	0.535
1150.5	0.35
1158.95	0.1929
1167.4	0.022
1175.85	0.039
1184.3	0.3029
1192.74	0.5289
1201.19	0.6
1209.64	0.63
1218.09	0.637
1226.54	0.598
1234.98	0.279
1243.43	0.064
1251.88	0.371
1260.33	0.521
1268.78	0.478
1277.22	0.2582
1285.67	0.196
1294.12	0.306
1302.57	0.198
1311.02	0.535
1319.47	0.628
1327.91	0.705
1336.36	0.75
1344.81	0.766
1353.26	0.763
1361.71	0.769
1370.15	0.769
1378.6	0.754
1387.05	0.706
1395.5	0.694
1403.95	0.663
1412.39	0.5859
1420.84	0.2579
1429.29	0.275
1437.74	0.1021
1446.19	0.1
1454.63	0.133
1463.08	0.407
1471.53	0.596
1479.98	0.685
1488.43	0.769
1496.88	0.792
1505.32	0.821
1513.77	0.833
1522.22	0.854
1530.67	0.866
1539.12	0.875
1547.56	0.887
1556.01	0.888
1564.46	0.888
1572.91	0.887
1581.36	0.888
1589.8	0.884
1598.25	0.875
1606.7	0.863
1615.15	0.866
1623.6	0.875
1632.05	0.882
1640.49	0.884
1648.94	0.884
1657.39	0.89
1665.84	0.885
1674.29	0.888
1682.73	0.89
1691.18	0.89
1699.63	0.882
1708.08	0.875
1716.53	0.87
1724.97	0.855
1733.42	0.83
1741.87	0.815
1750.32	0.834
1758.77	0.885
1767.21	0.902
1775.66	0.905
1784.11	0.906
1792.56	0.908
1801.01	0.909
1809.46	0.908
1817.9	0.906
1826.35	0.909
1834.8	0.909
1843.25	0.894
1851.7	0.893
1860.14	0.897
1868.59	0.912
1877.04	0.917
1885.49	0.917
1893.94	0.917
1902.38	0.914
1910.83	0.914
1919.28	0.912
1927.73	0.912
1936.18	0.909
1944.63	0.909
1953.07	0.914
1961.52	0.909
1969.97	0.905
1978.42	0.903
1986.87	0.897
1995.31	0.893
2003.76	0.894
2012.21	0.8975
2020.66	0.9
2029.11	0.9
2037.55	0.902
2046	0.903
2054.45	0.908
2062.9	0.908
2071.35	0.9059
2079.79	0.8987
2088.24	0.879
2096.69	0.8666
2105.14	0.8675
2113.59	0.88
2122.04	0.8867
2130.48	0.8963
2138.93	0.8988
2147.38	0.896
2155.83	0.8852
2164.28	0.8734
2172.72	0.867
2181.17	0.8677
2189.62	0.8738
2198.07	0.8816
2206.52	0.8884
2214.96	0.893
2223.41	0.893
2231.86	0.8901
2240.31	0.888
2248.76	0.888
2257.21	0.89
2265.65	0.893
2274.1	0.9004
2282.55	0.902
2291	0.902
2299.45	0.8991
2307.89	0.8818
2316.34	0.8599
2324.79	0.8564
2333.24	0.858
2341.69	0.869
2350.13	0.878
2358.58	0.878
2367.03	0.8849
2375.48	0.8915
2383.93	0.8935
2392.37	0.894
2400.82	0.894
2409.27	0.8937
2417.72	0.8919
2426.17	0.8872
2434.62	0.885
2443.06	0.885
2451.51	0.8887
2459.96	0.9016
2468.41	0.9061
2476.86	0.9083
2485.3	0.911
2493.75	0.911
2502.2	0.9108
2510.65	0.909
2519.1	0.909
2527.54	0.909
2535.99	0.908
2544.44	0.908
2552.89	0.908
2561.34	0.9063
2569.79	0.906
2578.23	0.9068
2586.68	0.908
2595.13	0.909
2603.58	0.9112
2612.03	0.912
2620.47	0.912
2628.92	0.912
2637.37	0.911
2645.82	0.9101
2654.27	0.9066
2662.71	0.9051
2671.16	0.905
2679.61	0.9016
2688.06	0.899
2696.51	0.896
2704.95	0.893
2713.4	0.893
2721.85	0.8937
2730.3	0.897
2738.75	0.903
2747.2	0.905
2755.64	0.903
2764.09	0.902
2772.54	0.8952
2780.99	0.8855
2789.44	0.872
2797.88	0.8627
2806.33	0.8443
2814.78	0.8349
2823.23	0.801
2831.68	0.7715
2840.12	0.7583
2848.57	0.7332
2857.02	0.726
2865.47	0.7292
2873.92	0.74
2882.36	0.744
2890.81	0.744
2899.26	0.7377
2907.71	0.7147
2916.16	0.6633
2924.61	0.6255
2933.05	0.5336
2941.5	0.4873
2949.95	0.4603
2958.4	0.4494
2966.85	0.4481
2975.29	0.4568
2983.74	0.5153
2992.19	0.5702
3000.64	0.6298
3009.09	0.6601
3017.53	0.666
3025.98	0.663
3034.43	0.6632
3042.88	0.6709
3051.33	0.6975
3059.78	0.7166
3068.22	0.7537
3076.67	0.7904
3085.12	0.8177
3093.57	0.8279
3102.02	0.8407
3110.46	0.8484
3118.91	0.8542
3127.36	0.857
3135.81	0.8588
3144.26	0.8635
3152.7	0.8655
3161.15	0.8671
3169.6	0.8698
3178.05	0.872
3186.5	0.872
3194.94	0.872
3203.39	0.8736
3211.84	0.8739
3220.29	0.873
3228.74	0.8731
3237.19	0.8767
3245.63	0.8786
3254.08	0.8818
3262.53	0.882
3270.98	0.882
3279.43	0.882
3287.87	0.882
3296.32	0.879
3304.77	0.879
3313.22	0.8767
3321.67	0.8751
3330.11	0.873
3338.56	0.873
3347.01	0.8724
3355.46	0.872
3363.91	0.87
3372.36	0.869
3380.8	0.869
3389.25	0.869
3397.7	0.869
3406.15	0.869
3414.6	0.869
3423.04	0.8671
3431.49	0.8654
3439.94	0.8621
3448.39	0.861
3456.84	0.86
3465.28	0.86
3473.73	0.86
3482.18	0.86
3490.63	0.86
3499.08	0.8595
3507.52	0.8565
3515.97	0.8497
3524.42	0.842
3532.87	0.8295
3541.32	0.827
3549.77	0.8242
3558.21	0.822
3566.66	0.8204
3575.11	0.8201
3583.56	0.826
3592.01	0.8403
3600.45	0.8529
3608.9	0.8617
3617.35	0.8668
3625.8	0.87
3634.25	0.872
3642.69	0.872
3651.14	0.87
3659.59	0.869
3668.04	0.867
3676.49	0.8696
3684.94	0.8729
3693.38	0.8763
3701.83	0.879
3710.28	0.8803
3718.73	0.8819
3727.18	0.8842
3735.62	0.8858
3744.07	0.8907
3752.52	0.8928
3760.97	0.893
3769.42	0.893
3777.86	0.893
3786.31	0.893
3794.76	0.8944
3803.21	0.8965
3811.66	0.8984
3820.1	0.9
3828.55	0.902
3837	0.902
3845.45	0.9
3853.9	0.899
3862.35	0.897
3870.79	0.896
3879.24	0.896
3887.69	0.896
3896.14	0.8937
3904.59	0.889
3913.03	0.8847
3921.48	0.882
3929.93	0.8804
3938.38	0.8801
3946.83	0.8818
3955.27	0.8841
3963.72	0.8882
