Infrared Spectrum: DIMETHOXYMETHANE
Formula: C3 H8 O2
CAS: 109-87-5
State: GAS (50 mmHg, N2 ADDED, TOTAL PRESSURE 600 mmHg)
Class: COBLENTZ
Instrument: DOW KBr FOREPRISM-GRATING
Instrument parameters: GRATING CHANGED AT 5.0, 7.5, 15.0 MICRON
Sampling: TRANSMISSION
Path length: 5 CM
Resolution: 2
Origin: DOW CHEMICAL COMPANY
1/CM	TRANSMITTANCE
402.817	0.959
412.207	0.951
421.596	0.937
430.986	0.919
440.376	0.893
449.765	0.864
459.155	0.87
468.545	0.901
477.934	0.944
487.324	0.973
496.714	0.982
506.103	0.988
515.493	0.988
524.883	0.989
534.272	0.986
543.662	0.985
553.052	0.985
562.441	0.979
571.831	0.969
581.221	0.935
590.61	0.901
600	0.893
609.39	0.908
618.779	0.943
628.169	0.988
637.559	1.001
646.948	1.001
656.338	1
665.728	1
675.117	1.001
684.507	1.002
693.897	1.005
703.286	1.007
712.676	1.008
722.066	1.008
731.455	1.007
740.845	1.002
750.235	1.002
759.625	1.01
769.014	1.011
778.404	1.013
787.794	1.011
797.183	1.011
806.573	1.016
815.963	1.016
825.352	1.017
834.742	1.021
844.132	1.029
853.521	1.03
862.911	1.029
872.301	1.024
881.69	1.014
891.08	0.983
900.47	0.899
909.859	0.633
919.249	0.256
928.639	0.125
938.028	0.045
947.418	0.229
956.808	0.5031
966.197	0.806
975.587	0.918
984.977	0.949
994.366	0.94
1003.76	0.873
1013.15	0.73
1022.54	0.51
1031.92	0.205
1041.31	0.014
1050.7	0.002
1060.09	0.004
1069.48	0.014
1078.87	0.291
1088.26	0.425
1097.65	0.288
1107.04	0.112
1116.43	0.066
1125.82	0.033
1135.21	0.005
1144.6	0.002
1153.99	0.007
1163.38	0.032
1172.77	0.326
1182.16	0.346
1191.55	0.352
1200.94	0.356
1210.33	0.395
1219.72	0.454
1229.11	0.512
1238.5	0.612
1247.89	0.719
1257.28	0.834
1266.67	0.898
1276.06	0.925
1285.45	0.937
1294.84	0.946
1304.23	0.951
1313.62	0.959
1323	0.965
1332.39	0.966
1341.78	0.965
1351.17	0.957
1360.56	0.944
1369.95	0.934
1379.34	0.89
1388.73	0.71
1398.12	0.719
1407.51	0.694
1416.9	0.911
1426.29	0.941
1435.68	0.876
1445.07	0.627
1454.46	0.548
1463.85	0.577
1473.24	0.649
1482.63	0.708
1492.02	0.815
1501.41	0.896
1510.8	0.947
1520.19	0.963
1529.58	0.976
1538.97	0.969
1548.36	0.976
1557.75	0.965
1567.14	0.967
1576.53	0.963
1585.92	0.966
1595.31	0.969
1604.69	0.973
1614.08	0.979
1623.47	0.985
1632.86	0.979
1642.25	0.978
1651.64	0.97
1661.03	0.982
1670.42	0.997
1679.81	0.998
1689.2	1.004
1698.59	0.994
1707.98	0.998
1717.37	0.995
1726.76	0.991
1736.15	0.985
1745.54	0.981
1754.93	0.989
1764.32	0.997
1773.71	1.002
1783.1	1.004
1792.49	1.002
1801.88	1.007
1811.27	1.001
1820.66	1.002
1830.05	0.998
1839.44	0.994
1848.83	0.994
1858.22	0.998
1867.61	1
1877	1.004
1886.39	1.004
1895.77	1.005
1905.16	1.005
1914.55	1.004
1923.94	0.997
1933.33	0.992
1942.72	0.978
1952.11	0.956
1961.5	0.931
1970.89	0.921
1980.28	0.924
1989.67	0.947
1999.06	0.962
2008.45	0.967
2017.84	0.967
2027.23	0.964
2036.62	0.9103
2046.01	0.8691
2055.4	0.8515
2064.79	0.8728
2074.18	0.9173
2083.57	0.9333
2092.96	0.9614
2102.35	0.967
2111.74	0.9616
2121.13	0.9481
2130.52	0.9479
2139.91	0.9564
2149.3	0.9694
2158.69	0.975
2168.08	0.976
2177.46	0.9799
2186.85	0.9897
2196.24	1.0004
2205.63	1.002
2215.02	1.002
2224.41	1.004
2233.8	1.0044
2243.19	1.0058
2252.58	1.0088
2261.97	1.0118
2271.36	1.0164
2280.75	1.024
2290.14	1.026
2299.53	1.027
2308.92	1.027
2318.31	1.027
2327.7	1.024
2337.09	1.02
2346.48	1.017
2355.87	1.017
2365.26	1.0187
2374.65	1.021
2384.04	1.023
2393.43	1.024
2402.82	1.026
2412.21	1.026
2421.6	1.026
2430.99	1.027
2440.38	1.029
2449.77	1.03
2459.15	1.03
2468.54	1.03
2477.93	1.03
2487.32	1.029
2496.71	1.0284
2506.1	1.0267
2515.49	1.026
2524.88	1.026
2534.27	1.0254
2543.66	1.024
2553.05	1.0237
2562.44	1.0207
2571.83	1.0167
2581.22	1.0091
2590.61	0.9994
2600	0.994
2609.39	1
2618.78	1.004
2628.17	1.008
2637.56	1.008
2646.95	1.0047
2656.34	1.002
2665.73	0.9995
2675.12	0.9905
2684.51	0.988
2693.9	0.9912
2703.29	0.9985
2712.68	1
2722.07	0.9965
2731.46	0.9783
2740.85	0.9491
2750.23	0.9074
2759.62	0.8139
2769.01	0.7477
2778.4	0.743
2787.79	0.777
2797.18	0.834
2806.57	0.7625
2815.96	0.545
2825.35	0.3053
2834.74	0.2158
2844.13	0.1956
2853.52	0.2722
2862.91	0.3538
2872.3	0.4198
2881.69	0.2541
2891.08	0.142
2900.47	0.1001
2909.86	0.087
2919.25	0.0768
2928.64	0.0485
2938.03	0.0365
2947.42	0.0343
2956.81	0.0529
2966.2	0.1497
2975.59	0.2457
2984.98	0.3447
2994.37	0.2396
3003.76	0.2184
3013.15	0.2543
3022.54	0.3389
3031.92	0.6762
3041.31	0.7944
3050.7	0.8257
3060.09	0.8427
3069.48	0.8601
3078.87	0.8821
3088.26	0.898
3097.65	0.9181
3107.04	0.9241
3116.43	0.9331
3125.82	0.9371
3135.21	0.951
3144.6	0.9542
3153.99	0.9663
3163.38	0.9751
3172.77	0.979
3182.16	0.983
3191.55	0.9859
3200.94	0.9829
3210.33	0.982
3219.72	0.9831
3229.11	0.986
3238.5	0.988
3247.89	0.986
3257.28	0.985
3266.67	0.986
3276.06	0.986
3285.45	0.988
3294.84	0.989
3304.23	0.992
3313.62	0.991
3323	0.985
3332.39	0.988
3341.78	0.988
3351.17	0.986
3360.56	0.983
3369.95	0.981
3379.34	0.978
3388.73	0.978
3398.12	0.981
3407.51	0.986
3416.9	0.988
3426.29	0.988
3435.68	0.983
3445.07	0.9849
3454.46	0.986
3463.85	0.985
3473.24	0.982
3482.63	0.986
3492.02	0.9879
3501.41	0.986
3510.8	0.988
3520.19	0.988
3529.58	0.988
3538.97	0.986
3548.36	0.986
3557.75	0.986
3567.14	0.985
3576.53	0.991
3585.92	0.989
3595.31	0.989
3604.69	0.9862
3614.08	0.985
3623.47	0.9832
3632.86	0.9857
3642.25	0.988
3651.64	0.9848
3661.03	0.986
3670.42	0.9794
3679.81	0.9844
3689.2	0.985
3698.59	0.979
3707.98	0.989
3717.37	0.9851
3726.76	0.9821
3736.15	0.9811
3745.54	0.982
3754.93	0.982
3764.32	0.985
3773.71	0.988
3783.1	0.9851
3792.49	0.982
