Infrared Spectrum: Methane, dimethoxy-
Formula: C 3 H 8 O 2
CAS: 109-87-5
State: gas
Origin: Sadtler Research Labs Under US-EPA Contract
1/CM	ABSORBANCE
450	0.00554486
462	0.00428942
474	0.00371401
486	0.00219702
498	0
510	0.00742802
522	0.00324322
534	0.00716647
546	0.00774188
558	0.0137575
570	0.0121359
582	0.0173146
594	0.0140191
606	0.0136529
618	0.0103051
630	0.00648644
642	0.00491714
654	0.00392325
666	0.00240626
678	0.00345246
690	0.00476021
702	0.00350477
714	0.00256319
726	0.00340015
738	0.00282474
750	0.00319091
762	0.00303398
774	0.00329553
786	0.00376632
798	0.00355708
810	0.00423711
822	0.00376632
834	0.00423711
846	0.00345246
858	0.00476021
870	0.00591103
882	0.0099389
894	0.0228072
906	0.0574887
918	0.127427
930	0.180208
942	0.158499
954	0.093478
966	0.0512115
978	0.0318045
990	0.0259981
1002	0.0333738
1014	0.0674276
1026	0.163678
1038	0.354609
1050	0.460799
1062	0.422089
1074	0.269396
1086	0.198987
1098	0.245334
1110	0.282056
1122	0.324165
1134	0.481827
1146	0.5231
1158	0.417748
1170	0.216563
1182	0.15149
1194	0.131978
1206	0.11503
1218	0.0925887
1230	0.0687876
1242	0.0453528
1254	0.0302875
1266	0.0214471
1278	0.0155884
1290	0.0140714
1302	0.0117697
1314	0.0117174
1326	0.0100958
1338	0.0108805
1350	0.0110374
1362	0.013339
1374	0.0157976
1386	0.0312814
1398	0.0395464
1410	0.0351
1422	0.0185177
1434	0.0223887
1446	0.0451435
1458	0.0592672
1470	0.042528
1482	0.0323799
1494	0.0226502
1506	0.0167915
1518	0.0112467
1530	0.00758495
1542	0.00700954
1554	0.0073234
1566	0.00758495
1578	0.00795112
1590	0.00695723
1602	0.00685261
1614	0.00601565
1626	0.00481252
1638	0.00585872
1650	0.0041848
1662	0.00502176
1674	0.00308629
1686	0.00381863
1698	0.00282474
1710	0.00402787
1722	0.00392325
1734	0.00517869
1746	0.00580641
1758	0.00533562
1770	0.00496945
1782	0.00408018
1794	0.00381863
1806	0.00329553
1818	0.00381863
1830	0.00360939
1842	0.00329553
1854	0.00355708
1866	0.00287705
1878	0.00292936
1890	0.00287705
1902	0.00303398
1914	0.00308629
1926	0.00408018
1938	0.00570179
1950	0.00826498
1962	0.00925887
1974	0.00915425
1986	0.00816036
1998	0.00664337
2010	0.0068003
2022	0.00805574
2034	0.0117174
2046	0.0141237
2058	0.012659
2070	0.00868346
2082	0.00753264
2094	0.00601565
2106	0.0057541
2118	0.00659106
2130	0.00648644
2142	0.00544024
2154	0.00491714
2166	0.00350477
2178	0.00355708
2190	0.00345246
2202	0.00245857
2214	0.00272012
2226	0.00251088
2238	0.00282474
2250	0.00287705
2262	0.00235395
2274	0.00224933
2286	0.00219702
2298	0.00240626
2310	0.00251088
2322	0.00350477
2334	0.00245857
2346	0.00277243
2358	0.00376632
2370	0.00073234
2382	0.00136006
2394	0.00120313
2406	0.0015693
2418	0.0010462
2430	0.00088927
2442	0.00020924
2454	5.231e-05
2466	0.00010462
2478	5.231e-05
2490	0.00036617
2502	0
2514	0
2526	0.00036617
2538	0.00047079
2550	0.00057541
2562	0.00099389
2574	0.00151699
2586	0.00214471
2598	0.00256319
2610	0.0031386
2622	0.00308629
2634	0.00303398
2646	0.00219702
2658	0.00350477
2670	0.0031386
2682	0.00319091
2694	0.00282474
2706	0.00334784
2718	0.00413249
2730	0.00721878
2742	0.0138098
2754	0.0225456
2766	0.0314383
2778	0.0341584
2790	0.0342107
2802	0.0422665
2814	0.0771049
2826	0.122196
2838	0.156302
2850	0.133495
2862	0.118796
2874	0.123609
2886	0.169275
2898	0.200033
2910	0.227235
2922	0.269763
2934	0.309257
2946	0.295604
2958	0.225195
2970	0.158238
2982	0.12884
2994	0.131821
3006	0.118116
3018	0.0854745
3030	0.0439927
3042	0.0310721
3054	0.0253703
3066	0.0218133
3078	0.0177854
3090	0.0144376
3102	0.0108282
3114	0.00878808
3126	0.00690492
3138	0.00538793
3150	0.00397556
3162	0.00350477
3174	0.00245857
3186	0.00266781
3198	0.0020924
3210	0.00272012
3222	0.00219702
3234	0.00219702
3246	0.00224933
3258	0.00177854
3270	0.00083696
3282	0.00120313
3294	0.00146468
3306	0.00136006
3318	0.00136006
3330	0.00088927
3342	0.00083696
3354	0.00099389
3366	0.00141237
3378	0.00099389
3390	0.00146468
3402	0.00120313
3414	0.00068003
3426	0.00068003
3438	0.0010462
3450	0.00136006
3462	0.00146468
3474	0.00115082
3486	0.00146468
3498	0.0015693
3510	0.0020924
3522	0.00235395
3534	0.00151699
3546	0.00277243
3558	0.0010462
3570	0.0036617
3582	0.00266781
3594	0.00251088
3606	0.0020924
3618	0.00376632
3630	0.00308629
3642	0.00266781
3654	0.00125544
3666	0.00193547
3678	0.00151699
3690	0.00130775
3702	0.00219702
3714	0.00204009
3726	0.00345246
3738	0.00136006
3750	0.00068003
3762	0.0005231
3774	0.00062772
3786	0.00146468
3798	0.00141237
3810	0
3822	0
3834	0.00151699
3846	0.0026155
3858	0.00109851
3870	0.00287705
3882	0.00204009
3894	0.00256319
3906	0.00193547
3918	0.00245857
3930	0.00423711
3942	0.00444635
3954	0.00350477
3966	0.00408018
