Infrared Spectrum: Difluoroacetic acid
Formula: C 2 H 2 F 2 O 2
CAS: 381-73-7
State: gas
Origin: EPA-IR VAPOR PHASE LIBRARY
1/CM	ABSORBANCE
549.8	0.096062
559.445	0.124332
569.09	0.149512
578.734	0.133842
588.379	0.109122
598.024	0.073912
607.669	0.066032
617.313	0.066712
626.958	0.070282
636.603	0.078782
646.248	0.084082
655.893	0.075852
665.537	0.060032
675.182	0.044832
684.827	0.031912
694.472	0.027832
704.116	0.028312
713.761	0.031562
723.406	0.035142
733.051	0.038402
742.695	0.041532
752.34	0.040212
761.985	0.036722
771.63	0.032622
781.275	0.025972
790.919	0.018522
800.564	0.012392
810.209	0.009132
819.854	0.007972
829.498	0.008182
839.143	0.008862
848.788	0.010852
858.433	0.014882
868.078	0.022702
877.722	0.035002
887.367	0.048802
897.012	0.061062
906.657	0.063492
916.301	0.050892
925.946	0.037882
935.591	0.019512
945.236	0.011642
954.88	0.008732
964.525	0.006822
974.17	0.006372
983.815	0.006752
993.46	0.007472
1003.1	0.008392
1012.75	0.009402
1022.39	0.011902
1032.04	0.017252
1041.68	0.025942
1051.33	0.042632
1060.97	0.073102
1070.62	0.127552
1080.26	0.220552
1089.91	0.360992
1099.55	0.539162
1109.2	0.663232
1118.84	0.660492
1128.49	0.517222
1138.13	0.362282
1147.78	0.237212
1157.42	0.191612
1167.07	0.172772
1176.71	0.149812
1186.36	0.113272
1196	0.078482
1205.64	0.051222
1215.29	0.036292
1224.93	0.029962
1234.58	0.026342
1244.22	0.024872
1253.87	0.024542
1263.51	0.027902
1273.16	0.033832
1282.8	0.044942
1292.45	0.059962
1302.09	0.077252
1311.74	0.088242
1321.38	0.089532
1331.03	0.089292
1340.67	0.088282
1350.32	0.077512
1359.96	0.065272
1369.61	0.051852
1379.25	0.052692
1388.9	0.057222
1398.54	0.060592
1408.18	0.058552
1417.83	0.048122
1427.47	0.039262
1437.12	0.024532
1446.76	0.014462
1456.41	0.009642
1466.05	0.006562
1475.7	0.004722
1485.34	0.003812
1494.99	0.003042
1504.63	0.002522
1514.28	0.002392
1523.92	0.002502
1533.57	0.002402
1543.21	0.002212
1552.86	0.001632
1562.5	0.0008316
1572.15	0.001265
1581.79	0.0011034
1591.44	0.0012956
1601.08	0.001402
1610.73	0.001922
1620.37	0.001562
1630.01	0.001962
1639.66	0.003682
1649.3	0.004702
1658.95	0.005132
1668.59	0.005282
1678.24	0.004812
1687.88	0.004662
1697.53	0.004622
1707.17	0.005072
1716.82	0.006692
1726.46	0.009492
1736.11	0.015332
1745.75	0.025782
1755.4	0.045422
1765.04	0.078512
1774.69	0.131612
1784.33	0.207892
1793.98	0.283332
1803.62	0.337292
1813.27	0.351852
1822.91	0.328172
1832.55	0.242902
1842.2	0.158302
1851.84	0.091042
1861.49	0.045962
1871.13	0.022402
1880.78	0.011622
1890.42	0.006872
1900.07	0.004482
1909.71	0.003352
1919.36	0.002702
1929	0.002252
1938.65	0.001972
1948.29	0.001912
1957.94	0.001782
1967.58	0.001682
1977.23	0.001692
1986.87	0.001692
1996.52	0.001622
2006.16	0.001652
2015.81	0.001662
2025.45	0.001732
2035.1	0.002072
2044.74	0.002382
2054.38	0.002672
2064.03	0.002772
2073.67	0.002292
2083.32	0.002002
2092.96	0.001532
2102.61	0.001512
2112.25	0.0013423
2121.9	0.0013272
2131.54	0.001412
2141.19	0.001612
2150.83	0.002022
2160.48	0.002302
2170.12	0.002872
2179.77	0.003262
2189.41	0.003702
2199.06	0.004102
2208.7	0.004342
2218.35	0.004342
2227.99	0.004222
2237.64	0.004072
2247.28	0.003852
2256.92	0.003732
2266.57	0.003452
2276.21	0.003322
2285.86	0.003232
2295.5	0.003202
2305.15	0.002842
2314.79	0.002652
2324.44	0.002442
2334.08	0.002292
2343.73	0.001952
2353.37	0.001812
2363.02	0.001862
2372.66	0.001722
2382.31	0.001642
2391.95	0.001712
2401.6	0.001822
2411.24	0.001782
2420.89	0.001882
2430.53	0.001922
2440.18	0.001992
2449.82	0.002042
2459.47	0.002202
2469.11	0.002412
2478.75	0.002232
2488.4	0.002402
2498.04	0.002492
2507.69	0.002672
2517.33	0.002632
2526.98	0.002482
2536.62	0.002182
2546.27	0.001902
2555.91	0.001612
2565.56	0.001592
2575.2	0.001412
2584.85	0.0013324
2594.49	0.0010051
2604.14	0.0008114
2613.78	0.0007883
2623.43	0.0008287
2633.07	0.0005947
2642.72	0.0007986
2652.36	0.0007076
2662.01	0.0009499
2671.65	0.0011074
2681.29	0.0010123
2690.94	0.000893
2700.58	0.0009045
2710.23	0.0008265
2719.87	0.0007388
2729.52	0.0009886
2739.16	0.0007781
2748.81	0.0008258
2758.45	0.0007062
2768.1	0.0007563
2777.74	0.0006932
2787.39	0.0008542
2797.03	0.0005631
2806.68	0.0006285
2816.32	0.0008675
2825.97	0.0007884
2835.61	0.0010089
2845.26	0.0008818
2854.9	0.0007869
2864.55	0.000699
2874.19	0.000741
2883.84	0.0009462
2893.48	0.0013338
2903.12	0.001402
2912.77	0.001912
2922.41	0.002702
2932.06	0.003792
2941.7	0.005652
2951.35	0.008742
2960.99	0.012632
2970.64	0.017462
2980.28	0.023142
2989.93	0.025262
2999.57	0.022982
3009.22	0.019712
3018.86	0.013772
3028.51	0.008352
3038.15	0.004702
3047.8	0.003022
3057.44	0.001922
3067.09	0.001762
3076.73	0.001302
3086.38	0.0013148
3096.02	0.0010884
3105.67	0.0011987
3115.31	0.0009969
3124.95	0.0011461
3134.6	0.0011363
3144.24	0.0010223
3153.89	0.0008185
3163.53	0.0009067
3173.18	0.0007216
3182.82	0.000704
3192.47	0.00049126
3202.11	0.0008214
3211.76	0.0008487
3221.4	0.0007709
3231.05	0.0007048
3240.69	0.0006395
3250.34	0.0006547
3259.98	0.0006398
3269.63	0.0007157
3279.27	0.0008236
3288.92	0.0007895
3298.56	0.0007119
3308.21	0.0007592
3317.85	0.0009534
3327.49	0.0007573
3337.14	0.0009311
3346.78	0.0007279
3356.43	0.0006257
3366.07	0.0006475
3375.72	0.0003294
3385.36	0.0002985
3395.01	0.00044373
3404.65	0.000355
3414.3	0.00048061
3423.94	0.000223
3433.59	0.000271
3443.23	0.000154
3452.88	0.00048963
3462.52	0.00040886
3472.17	0.000553
3481.81	0.0005694
3491.46	0.0009858
3501.1	0.0008621
3510.75	0.0012867
3520.39	0.002222
3530.04	0.003702
3539.68	0.008302
3549.32	0.026542
3558.97	0.091432
3568.61	0.145932
3578.26	0.194632
3587.9	0.158122
3597.55	0.092172
3607.19	0.035162
3616.84	0.019842
3626.48	0.010892
3636.13	0.006432
3645.77	0.004182
3655.42	0.002762
3665.06	0.002302
3674.71	0.001492
3684.35	0.0011318
3694	0.0008402
3703.64	0.0008951
3713.29	0.0009553
3722.93	0.0008696
3732.58	0.0006107
3742.22	0.0005941
3751.86	0.0003096
3761.51	0.0003
3771.15	0.000249
3780.8	0.000261
3790.44	0.000237
3800.09	0.00048741
3809.73	0.000607
3819.38	0.0007856
3829.02	0.0006252
3838.67	0.00046521
3848.31	0.0005901
3857.96	0.0006067
3867.6	0.0006582
3877.25	0.0006144
3886.89	0.0006292
3896.54	0.0007026
3906.18	0.0003104
3915.83	0.0003374
3925.47	0.000233
3935.12	0.000154
3944.76	0.0005161
3954.41	0.000228
3964.05	0.000288
3973.69	0.000223
3983.34	0.000204
3992.98	0.00046111
