Infrared Spectrum: Furan, tetrahydro-3-methyl-
Formula: C 5 H 10 O
CAS: 13423-15-9
State: gas
Origin: Sadtler Research Labs Under US-EPA Contract
1/CM	ABSORBANCE
450	0.00134864
462	0.000809184
474	0.000539456
486	0.00175323
498	0.0031693
510	0.00236012
522	0.00310187
534	0.00236012
546	0.00209039
558	0.0052597
570	0.00438308
582	0.00323674
594	0.00296701
606	0.00492254
618	0.0067432
630	0.00890102
642	0.0123401
654	0.0208365
666	0.0201622
678	0.0171277
690	0.011396
702	0.00896846
714	0.00472024
726	0.00586658
738	0.00539456
750	0.00478767
762	0.00728266
774	0.00977764
786	0.0115983
798	0.0126772
810	0.0153071
822	0.015914
834	0.0142956
846	0.0139584
858	0.0170603
870	0.0210388
882	0.0291306
894	0.0586658
906	0.0965626
918	0.1263
930	0.100271
942	0.0677692
954	0.051046
966	0.0546199
978	0.0621723
990	0.062442
1002	0.0563732
1014	0.0594076
1026	0.0794349
1038	0.107824
1050	0.140259
1062	0.152936
1074	0.171817
1086	0.196429
1098	0.213355
1110	0.180043
1122	0.107082
1134	0.061498
1146	0.0465281
1158	0.0320976
1170	0.0249498
1182	0.0240058
1194	0.0269054
1206	0.0276471
1218	0.0284563
1230	0.0258265
1242	0.0236686
1254	0.0203645
1266	0.0177346
1278	0.0146327
1290	0.0125424
1302	0.0106543
1314	0.0130144
1326	0.016386
1338	0.0221851
1350	0.0209039
1362	0.0219828
1374	0.0272425
1386	0.0364133
1398	0.026231
1410	0.0111263
1422	0.0119355
1434	0.0209039
1446	0.0434262
1458	0.0563732
1470	0.056036
1482	0.0339857
1494	0.0201622
1506	0.0142956
1518	0.00815927
1530	0.00472024
1542	0.00701293
1554	0.00418078
1566	0.00323674
1578	0.00424822
1590	0.00249498
1602	0.00249498
1614	0.00296701
1626	0.00404592
1638	0.00451794
1650	0.00431565
1662	0.0033716
1674	0.00397849
1686	0.00552942
1698	0.0052597
1710	0.00262985
1722	0.00310187
1734	0.00498997
1746	0.00310187
1758	0.00310187
1770	0.00364133
1782	0.00303444
1794	0.00370876
1806	0.00343903
1818	0.00343903
1830	0.00343903
1842	0.0031693
1854	0.00236012
1866	0.00242755
1878	0.00229269
1890	0.00283214
1902	0.00236012
1914	0.00276471
1926	0.00323674
1938	0.00445051
1950	0.00498997
1962	0.00573172
1974	0.00559686
1986	0.00546199
1998	0.00552942
2010	0.00519226
2022	0.00458538
2034	0.00397849
2046	0.00289958
2058	0.00222526
2070	0.00195553
2082	0.0018881
2094	0.0018881
2106	0.00155094
2118	0.00141607
2130	0.00182066
2142	0.00222526
2154	0.0016858
2166	0.00222526
2178	0.00175323
2190	0.00161837
2202	0.00215782
2214	0.00161837
2226	0.00161837
2238	0.00161837
2250	0.0014835
2262	0.00202296
2274	0.00195553
2286	0.0018881
2298	0.00242755
2310	0.00283214
2322	0.00364133
2334	0.00397849
2346	0.00384362
2358	0.00472024
2370	0.00424822
2382	0.00182066
2394	0.00067432
2406	0.000606888
2418	0.00101148
2430	0.00107891
2442	0.000741752
2454	0.000606888
2466	0.000472024
2478	0.000741752
2490	0.000472024
2502	0.000472024
2514	0.000404592
2526	0.000809184
2538	0.000876616
2550	0.00182066
2562	0.00195553
2574	0.00202296
2586	0.00303444
2598	0.00343903
2610	0.00458538
2622	0.00512483
2634	0.00613631
2646	0.00728266
2658	0.010452
2670	0.0126098
2682	0.0132841
2694	0.0131492
2706	0.0124749
2718	0.0121378
2730	0.0127446
2742	0.013891
2754	0.0147676
2766	0.0161162
2778	0.0221851
2790	0.0317605
2802	0.0474721
2814	0.0767376
2826	0.131964
2838	0.207825
2850	0.276539
2862	0.305804
2874	0.337699
2886	0.337969
2898	0.303983
2910	0.285979
2922	0.320032
2934	0.368179
2946	0.424956
2958	0.552808
2970	0.67432
2982	0.450243
2994	0.238979
3006	0.102294
3018	0.0476744
3030	0.024343
3042	0.0144979
3054	0.00971021
3066	0.00708036
3078	0.00559686
3090	0.00539456
3102	0.00418078
3114	0.00310187
3126	0.00377619
3138	0.00310187
3150	0.00310187
3162	0.00418078
3174	0.00431565
3186	0.00478767
3198	0.00404592
3210	0.00276471
3222	0.00134864
3234	0.000944048
3246	0.00067432
3258	0.000809184
3270	0.000809184
3282	0.00134864
3294	0.000809184
3306	0.000269728
3318	0.000809184
3330	0.000944048
3342	0.000741752
3354	0.000944048
3366	0.000539456
3378	0.000539456
3390	0.000472024
3402	0.00101148
3414	0.000944048
3426	0.000404592
3438	6.7432e-05
3450	6.7432e-05
3462	0.00033716
3474	0.00067432
3486	6.7432e-05
3498	0.000606888
3510	0.00155094
3522	0.00067432
3534	6.7432e-05
3546	0.00128121
3558	0.000202296
3570	0.0018881
3582	0.000741752
3594	0.00134864
3606	0.00128121
3618	0.0014835
3630	0.00269728
3642	0.00141607
3654	0.00134864
3666	0.000741752
3678	0.00195553
3690	0.0014835
3702	0.000404592
3714	0.00141607
3726	0.00155094
3738	0.0014835
3750	0.00283214
3762	0.000944048
3774	0.000404592
3786	0.000944048
3798	0.00114634
3810	0.00161837
3822	0.00161837
3834	0.00175323
3846	0.0014835
3858	0.0016858
3870	0.00256242
3882	0.00202296
3894	0.00195553
3906	0.00222526
3918	0.0016858
3930	0.00128121
3942	0.00161837
3954	6.7432e-05
3966	6.7432e-05
