Infrared Spectrum: N-Methylallylamine
Formula: C 4 H 9 N
CAS: 627-37-2
State: gas
Origin: EPA-IR VAPOR PHASE LIBRARY
1/CM	ABSORBANCE
549.8	0.00508
559.445	0.00602
569.09	0.00713
578.734	0.0088
588.379	0.01043
598.024	0.01235
607.669	0.01576
617.313	0.01931
626.958	0.02415
636.603	0.02947
646.248	0.03616
655.893	0.04321
665.537	0.05063
675.182	0.05738
684.827	0.06342
694.472	0.06733
704.116	0.06849
713.761	0.0658
723.406	0.05874
733.051	0.04888
742.695	0.03937
752.34	0.03209
761.985	0.0261
771.63	0.02203
781.275	0.01852
790.919	0.01549
800.564	0.01341
810.209	0.0114
819.854	0.0104
829.498	0.0102
839.143	0.01061
848.788	0.01151
858.433	0.01202
868.078	0.01251
877.722	0.01295
887.367	0.01323
897.012	0.01345
906.657	0.01396
916.301	0.01561
925.946	0.01813
935.591	0.01939
945.236	0.01849
954.88	0.01531
964.525	0.01081
974.17	0.0079
983.815	0.00662
993.46	0.00582
1003.1	0.00651
1012.75	0.00811
1022.39	0.01044
1032.04	0.01388
1041.68	0.01873
1051.33	0.02387
1060.97	0.02799
1070.62	0.02822
1080.26	0.0287
1089.91	0.02644
1099.55	0.03057
1109.2	0.0396
1118.84	0.05334
1128.49	0.06807
1138.13	0.0792
1147.78	0.07561
1157.42	0.0644
1167.07	0.04758
1176.71	0.02407
1186.36	0.01198
1196	0.00623
1205.64	0.00326
1215.29	0.00205
1224.93	0.00172
1234.58	0.00369
1244.22	0.00494
1253.87	0.00577
1263.51	0.00514
1273.16	0.00631
1282.8	0.00716
1292.45	0.00851
1302.09	0.00899
1311.74	0.00912
1321.38	0.0096
1331.03	0.01253
1340.67	0.01677
1350.32	0.02169
1359.96	0.02572
1369.61	0.02976
1379.25	0.02947
1388.9	0.02534
1398.54	0.02148
1408.18	0.01614
1417.83	0.01946
1427.47	0.0299
1437.12	0.04796
1446.76	0.06386
1456.41	0.07688
1466.05	0.07943
1475.7	0.06669
1485.34	0.05399
1494.99	0.03272
1504.63	0.01895
1514.28	0.01231
1523.92	0.00869
1533.57	0.00699
1543.21	0.00579
1552.86	0.0052
1562.5	0.00481
1572.15	0.00443
1581.79	0.00388
1591.44	0.00355
1601.08	0.00324
1610.73	0.00331
1620.37	0.00292
1630.01	0.00276
1639.66	0.00275
1649.3	0.00262
1658.95	0.00251
1668.59	0.00217
1678.24	0.00204
1687.88	0.00187
1697.53	0.00153
1707.17	0.00124
1716.82	0.00118
1726.46	0.0009246
1736.11	0.0009406
1745.75	0.000923
1755.4	0.0009132
1765.04	0.0009486
1774.69	0.00102
1784.33	0.00132
1793.98	0.00147
1803.62	0.00163
1813.27	0.00187
1822.91	0.00198
1832.55	0.00217
1842.2	0.00212
1851.84	0.00218
1861.49	0.0019
1871.13	0.00164
1880.78	0.00141
1890.42	0.00138
1900.07	0.00117
1909.71	0.00122
1919.36	0.00118
1929	0.00103
1938.65	0.0009925
1948.29	0.00111
1957.94	0.00111
1967.58	0.00114
1977.23	0.00125
1986.87	0.00128
1996.52	0.00135
2006.16	0.00137
2015.81	0.00157
2025.45	0.00169
2035.1	0.00191
2044.74	0.00198
2054.38	0.00203
2064.03	0.00219
2073.67	0.0022
2083.32	0.00226
2092.96	0.00203
2102.61	0.00185
2112.25	0.00156
2121.9	0.00136
2131.54	0.00134
2141.19	0.00141
2150.83	0.00147
2160.48	0.00165
2170.12	0.00171
2179.77	0.00187
2189.41	0.00195
2199.06	0.00199
2208.7	0.00195
2218.35	0.00193
2227.99	0.00181
2237.64	0.00175
2247.28	0.00184
2256.92	0.00182
2266.57	0.00186
2276.21	0.00182
2285.86	0.00186
2295.5	0.00195
2305.15	0.00196
2314.79	0.002
2324.44	0.00205
2334.08	0.00233
2343.73	0.0024
2353.37	0.00256
2363.02	0.00241
2372.66	0.00245
2382.31	0.00254
2391.95	0.00254
2401.6	0.00276
2411.24	0.00271
2420.89	0.00272
2430.53	0.00269
2440.18	0.00269
2449.82	0.00277
2459.47	0.00269
2469.11	0.00271
2478.75	0.00279
2488.4	0.00322
2498.04	0.00343
2507.69	0.00391
2517.33	0.00422
2526.98	0.00445
2536.62	0.00464
2546.27	0.00496
2555.91	0.00522
2565.56	0.00576
2575.2	0.00624
2584.85	0.00682
2594.49	0.0075
2604.14	0.00835
2613.78	0.00902
2623.43	0.00996
2633.07	0.01075
2642.72	0.01193
2652.36	0.01321
2662.01	0.01487
2671.65	0.01706
2681.29	0.01942
2690.94	0.02177
2700.58	0.02394
2710.23	0.02602
2719.87	0.02822
2729.52	0.03084
2739.16	0.03488
2748.81	0.04251
2758.45	0.05625
2768.1	0.08004
2777.74	0.11604
2787.39	0.15617
2797.03	0.18453
2806.68	0.19144
2816.32	0.17754
2825.97	0.15855
2835.61	0.14924
2845.26	0.1532
2854.9	0.16457
2864.55	0.17847
2874.19	0.19535
2883.84	0.20453
2893.48	0.216
2903.12	0.2195
2912.77	0.23024
2922.41	0.25535
2932.06	0.29149
2941.7	0.31732
2951.35	0.3303
2960.99	0.33093
2970.64	0.29929
2980.28	0.24087
2989.93	0.16374
2999.57	0.09278
3009.22	0.05377
3018.86	0.03475
3028.51	0.02551
3038.15	0.02089
3047.8	0.01814
3057.44	0.01626
3067.09	0.01488
3076.73	0.01347
3086.38	0.01207
3096.02	0.01051
3105.67	0.00899
3115.31	0.00781
3124.95	0.0069
3134.6	0.00612
3144.24	0.00593
3153.89	0.00596
3163.53	0.00607
3173.18	0.006
3182.82	0.00572
3192.47	0.00551
3202.11	0.00491
3211.76	0.00438
3221.4	0.00405
3231.05	0.00365
3240.69	0.0034
3250.34	0.00302
3259.98	0.00313
3269.63	0.00285
3279.27	0.00259
3288.92	0.00254
3298.56	0.0025
3308.21	0.00236
3317.85	0.00233
3327.49	0.00233
3337.14	0.00235
3346.78	0.00231
3356.43	0.00265
3366.07	0.00266
3375.72	0.00256
3385.36	0.00262
3395.01	0.00286
3404.65	0.00258
3414.3	0.00221
3423.94	0.00226
3433.59	0.00236
3443.23	0.0021
3452.88	0.00211
3462.52	0.00192
3472.17	0.00196
3481.81	0.00196
3491.46	0.00176
3501.1	0.00183
3510.75	0.00191
3520.39	0.00173
3530.04	0.00177
3539.68	0.00197
3549.32	0.00192
3558.97	0.00164
3568.61	0.00194
3578.26	0.00205
3587.9	0.00214
3597.55	0.00175
3607.19	0.00172
3616.84	0.00205
3626.48	0.00191
3636.13	0.00192
3645.77	0.00208
3655.42	0.00224
3665.06	0.00209
3674.71	0.00253
3684.35	0.00227
3694	0.00251
3703.64	0.00248
3713.29	0.00229
3722.93	0.00239
3732.58	0.00235
3742.22	0.00251
3751.86	0.002
3761.51	0.00266
3771.15	0.00252
3780.8	0.00246
3790.44	0.0027
3800.09	0.00255
3809.73	0.00262
3819.38	0.00273
3829.02	0.00322
3838.67	0.00263
3848.31	0.00302
3857.96	0.00264
3867.6	0.0026
3877.25	0.00284
3886.89	0.0031
3896.54	0.0033
3906.18	0.00339
3915.83	0.00311
3925.47	0.00383
3935.12	0.00387
3944.76	0.00381
3954.41	0.0041
3964.05	0.00415
3973.69	0.00413
3983.34	0.00416
3992.98	0.00398
