Infrared Spectrum: 3-Chloro-3-methyl-1-butene
Formula: C 5 H 9 Cl
CAS: 2190-48-9
State: gas
Instrument: HP-GC/MS/IRD
Origin: NIST Mass Spectrometry Data Center
1/CM	ABSORBANCE
550	0.0004158
562	0.000486
574	0.000207
586	0.0001362
598	0.0001128
610	0.0001146
622	0.00015
634	0.000207
646	0.000759
658	0.001215
670	0.0021372
682	0.003531
694	0.0033144
706	0.002043
718	0.0013878
730	0.001377
742	0.0013764
754	0.0012174
766	0.0008202
778	0.0006294
790	0.0006156
802	0.000795
814	0.001146
826	0.001656
838	0.002232
850	0.0018984
862	0.001383
874	0.0012876
886	0.0016122
898	0.0017124
910	0.0016314
922	0.0011826
934	0.0007692
946	0.000477
958	0.0004788
970	0.0005862
982	0.000792
994	0.0007722
1006	0.0009216
1018	0.0010896
1030	0.0008058
1042	0.0003552
1054	0.0003054
1066	0.0001788
1078	0.0001824
1090	0.0002544
1102	0.000303
1114	0.0002826
1126	0.0002172
1138	0.0002394
1150	0.0002196
1162	0.000255
1174	0.0002952
1186	0.0003168
1198	0.0003948
1210	0.0006852
1222	0.0011544
1234	0.0017898
1246	0.0034842
1258	0.0041262
1270	0.002565
1282	0.000933
1294	0.0004764
1306	0.0004152
1318	0.0003438
1330	0.0003834
1342	0.0005088
1354	0.0007896
1366	0.0012948
1378	0.0019296
1390	0.0021216
1402	0.0014958
1414	0.0011634
1426	0.0013758
1438	0.0018588
1450	0.002265
1462	0.0021162
1474	0.0015558
1486	0.0010476
1498	0.0007746
1510	0.0006636
1522	0.0006624
1534	0.000669
1546	0.0006432
1558	0.0006954
1570	0.0007356
1582	0.0008322
1594	0.0008868
1606	0.0008544
1618	0.0007164
1630	0.0005862
1642	0.0006534
1654	0.0011538
1666	0.0015024
1678	0.0011286
1690	0.0003354
1702	0.0001158
1714	3.84e-05
1726	0
1738	3.48e-05
1750	3.12e-05
1762	7.68e-05
1774	0.0001476
1786	0.0001962
1798	0.0002556
1810	0.0001794
1822	0.0001722
1834	0.0001692
1846	0.000135
1858	5.4e-05
1870	7.98e-05
1882	2.94e-05
1894	4.5e-05
1906	3.96e-05
1918	2.22e-05
1930	5.16e-05
1942	4.32e-05
1954	7.8e-05
1966	7.08e-05
1978	5.7e-05
1990	4.02e-05
2002	4.5e-05
2014	5.52e-05
2026	5.16e-05
2038	3.6e-05
2050	4.26e-05
2062	7.68e-05
2074	6.6e-05
2086	6.66e-05
2098	8.82e-05
2110	7.32e-05
2122	0.000114
2134	9.12e-05
2146	0.0001116
2158	7.68e-05
2170	0.0001128
2182	9.96e-05
2194	7.02e-05
2206	8.94e-05
2218	9.06e-05
2230	7.56e-05
2242	6.96e-05
2254	8.22e-05
2266	6.54e-05
2278	8.28e-05
2290	8.1e-05
2302	8.76e-05
2314	4.68e-05
2326	0.0001116
2338	0.0001236
2350	0.0001284
2362	0.0001716
2374	0.0001164
2386	0.0001422
2398	0.0001062
2410	0.000117
2422	0.0001032
2434	0.0001308
2446	0.0001464
2458	0.0001614
2470	0.00012
2482	0.0001566
2494	0.000138
2506	0.0001128
2518	9.84e-05
2530	8.76e-05
2542	9.36e-05
2554	0.0001182
2566	4.5e-05
2578	0.0001068
2590	6.18e-05
2602	9.96e-05
2614	9.06e-05
2626	0.00015
2638	0.0001164
2650	0.0001644
2662	0.000138
2674	0.0001692
2686	0.0001668
2698	0.0001884
2710	0.0002394
2722	0.0003
2734	0.0003426
2746	0.0004878
2758	0.000414
2770	0.0003156
2782	0.0003216
2794	0.0003852
2806	0.0004278
2818	0.0005544
2830	0.000666
2842	0.0010698
2854	0.0016512
2866	0.0025926
2878	0.0030162
2890	0.003222
2902	0.0036486
2914	0.0046644
2926	0.0058944
2938	0.005721
2950	0.0049056
2962	0.0048624
2974	0.0054354
2986	0.0053748
2998	0.0045042
3010	0.0034128
3022	0.0027036
3034	0.002436
3046	0.0020724
3058	0.001728
3070	0.0014508
3082	0.001365
3094	0.0012114
3106	0.000996
3118	0.0006588
3130	0.0003834
3142	0.0003168
3154	0.0002526
3166	0.0001752
3178	9.48e-05
3190	0.0001026
3202	0.0001134
3214	0.0001152
3226	0.0001206
3238	0.0001434
3250	6.72e-05
3262	8.88e-05
3274	5.16e-05
3286	0.0001392
3298	5.28e-05
3310	4.5e-05
3322	5.22e-05
3334	0.000102
3346	6.12e-05
3358	0.0001146
3370	5.16e-05
3382	9.84e-05
3394	9.12e-05
3406	0.0001368
3418	9.6e-05
3430	9.72e-05
3442	0.0001164
3454	0.0001098
3466	2.4e-05
3478	0.000123
3490	8.28e-05
3502	0.0001506
3514	5.88e-05
3526	0.0001344
3538	6.06e-05
3550	0.0001512
3562	0.0001164
3574	9e-05
3586	9.84e-05
3598	9.36e-05
3610	0.0001002
3622	0.0001128
3634	8.64e-05
3646	0.0001266
3658	9.24e-05
3670	0.0001536
3682	0.0002022
3694	0.0001368
3706	0.000144
3718	7.74e-05
3730	0.0001386
3742	0.0001734
3754	0.0001446
3766	0.0001464
3778	0.000138
3790	0.0001056
3802	0.0001848
3814	0.0001734
3826	0.0001536
3838	0.0001344
