Infrared Spectrum: 2-Cyclopenten-1-one
Formula: C 5 H 6 O
CAS: 930-30-3
State: gas
Origin: Sadtler Research Labs Under US-EPA Contract
1/CM	ABSORBANCE
450	0.0341157
462	0.0197231
474	0.0233657
486	0.00692975
498	0.00666323
510	0.00346488
522	0.000710744
534	0.00657438
546	0.00444215
558	0.00382025
570	0.00710744
582	0.00319835
594	0.0095062
606	0.00817356
618	0.0070186
630	0.00479752
642	0.00604132
654	0.00621901
666	0.0063967
678	0.00337603
690	0.00337603
702	0.00630785
714	0.0112831
726	0.0437996
738	0.0739174
750	0.189147
762	0.0793368
774	0.0376694
786	0.00852893
798	0.00755165
810	0.0178574
822	0.0229215
834	0.0196343
846	0.00604132
858	0.00470868
870	0.00284298
882	0.00568595
894	0.0175021
906	0.026031
918	0.0238099
930	0.0150145
942	0.00648554
954	0.00977273
966	0.00657438
978	0.0179463
990	0.0273636
1002	0.0433554
1014	0.0188347
1026	0.0120826
1038	0.00613017
1050	0.00595248
1062	0.00470868
1074	0.00897314
1086	0.0132376
1098	0.0170579
1110	0.0143926
1122	0.0134153
1134	0.0191012
1146	0.045843
1158	0.117184
1170	0.113097
1182	0.140372
1194	0.044688
1206	0.0185682
1218	0.0194566
1230	0.0140372
1242	0.0194566
1254	0.0100393
1266	0.00675207
1278	0.00986157
1290	0.0171467
1302	0.0158141
1314	0.0192789
1326	0.0283409
1338	0.0398905
1350	0.045843
1362	0.0249649
1374	0.00932852
1386	0.00568595
1398	0.0115496
1410	0.0195455
1422	0.0209669
1434	0.0274525
1446	0.029407
1458	0.0313616
1470	0.0156364
1482	0.00613017
1494	0.00506405
1506	0.00719628
1518	0.00470868
1530	0.00239876
1542	0.00497521
1554	0.00390909
1566	0.0063967
1578	0.0190124
1590	0.0268306
1602	0.0263864
1614	0.0180351
1626	0.0116384
1638	0.0149256
1650	0.0118161
1662	0.00692975
1674	0.0102169
1686	0.018124
1698	0.027719
1710	0.0723182
1722	0.33405
1734	0.742639
1746	0.88843
1758	0.574281
1770	0.0465537
1782	0.0185682
1794	0.0138595
1806	0.012438
1818	0.00852893
1830	0.00613017
1842	0.00515289
1854	0.00533058
1866	0.00453099
1878	0.00337603
1890	0.00390909
1902	0.00692975
1914	0.0100393
1926	0.00977273
1938	0.0057748
1950	0.00435331
1962	0.00444215
1974	0.00390909
1986	0.0024876
1998	0.00142149
2010	0.00168802
2022	0.00142149
2034	0.00133265
2046	0.00115496
2058	0.00133265
2070	0.00195455
2082	0.000621901
2094	0.00106612
2106	0.00159917
2118	0.00177686
2130	0.00195455
2142	0.00204339
2154	0.00266529
2166	0.00337603
2178	0.00302066
2190	0.00293182
2202	0.00328719
2214	0.00319835
2226	0.00284298
2238	0.00222107
2250	0.00382025
2262	0.00506405
2274	0.00613017
2286	0.00595248
2298	0.00373141
2310	0.00230992
2322	0.00159917
2334	0.00328719
2346	0.00621901
2358	0.000266529
2370	0.00968389
2382	0.00781818
2394	0.00310951
2406	0.00275413
2418	0.00257645
2430	0.00195455
2442	0.00204339
2454	0.00195455
2466	0.00204339
2478	0.00230992
2490	0.00222107
2502	0.00284298
2514	0.00239876
2526	0.00230992
2538	0.00195455
2550	0.00177686
2562	0.00204339
2574	0.00204339
2586	0.00177686
2598	0.00266529
2610	0.00293182
2622	0.00319835
2634	0.00293182
2646	0.00382025
2658	0.00195455
2670	0.000266529
2682	0.00195455
2694	0.00239876
2706	0.00239876
2718	0.0012438
2730	0.00177686
2742	0.00266529
2754	0.00266529
2766	0.00257645
2778	0.00266529
2790	0.00239876
2802	0.00364256
2814	0.00479752
2826	0.00586364
2838	0.0108388
2850	0.0150145
2862	0.0210558
2874	0.0257645
2886	0.0192789
2898	0.0157252
2910	0.0192789
2922	0.0547273
2934	0.0898203
2946	0.0755166
2958	0.0557046
2970	0.0302955
2982	0.0252314
2994	0.0162583
3006	0.00790703
3018	0.00497521
3030	0.00568595
3042	0.012438
3054	0.0292293
3066	0.0300289
3078	0.0291405
3090	0.0161694
3102	0.0123492
3114	0.0076405
3126	0.00213223
3138	0.00293182
3150	0.0024876
3162	0.00293182
3174	0.00426446
3186	0.00417562
3198	0.00408678
3210	0.00355372
3222	0.00266529
3234	0.00302066
3246	0.0024876
3258	0.00204339
3270	0.0018657
3282	0.00213223
3294	0.00222107
3306	0.00230992
3318	0.00195455
3330	0.0012438
3342	0.00204339
3354	0.00257645
3366	0.00284298
3378	0.00293182
3390	0.00319835
3402	0.0018657
3414	0.00284298
3426	0.00346488
3438	0.00408678
3450	0.0095062
3462	0.0143926
3474	0.0174132
3486	0.00710744
3498	0.00426446
3510	0.00337603
3522	0.00559711
3534	0.00293182
3546	0.00541942
3558	0.00541942
3570	0.00586364
3582	0.00666323
3594	0.00613017
3606	0.00675207
3618	0.00470868
3630	0.00284298
3642	0.00586364
3654	0.00595248
3666	0.00790703
3678	0.00613017
3690	0.00852893
3702	0.00461984
3714	0.00435331
3726	0.0057748
3738	0.00444215
3750	0.00852893
3762	0.00408678
3774	0.00657438
3786	0.00906199
3798	0.00275413
3810	0.00790703
3822	0.0070186
3834	0.00630785
3846	0.00941736
3858	0.00390909
3870	0.00737397
3882	0.00461984
3894	0.00808471
3906	0.00328719
3918	0.00995042
3930	0.00488637
3942	0.00595248
3954	0.00906199
3966	0.00364256
