Infrared Spectrum: ACETYLENE
Formula: C2 H2
CAS: 74-86-2
State: GAS (50 mmHg DILUTED TO A TOTAL PRESSURE OF 600 mmHg WITH N2)
Class: COBLENTZ
Instrument: DOW KBr FOREPRISM
Instrument parameters: GRATING CHANGED AT 5.0, 7.5, 15.0 MICRON
Sampling: TRANSMISSION
Path length: 5 CM
Resolution: 4
Origin: DOW CHEMICAL COMPANY
1/CM	TRANSMITTANCE
453.066	1.011
461.514	1.012
469.962	1.02
478.41	1.033
486.858	1.044
495.306	1.047
503.754	1.051
512.203	1.054
520.651	1.059
529.099	1.057
537.547	1.05
545.995	1.041
554.443	1.038
562.891	1.041
571.339	1.046
579.787	1.056
588.235	1.062
596.683	1.06
605.131	1.059
613.58	1.057
622.028	1.06
630.476	1.053
638.924	1.057
647.372	1.062
655.82	1.053
664.268	1.028
672.716	0.988
681.164	0.6762
689.612	0.7571
698.06	0.5611
706.508	0.4642
714.956	0.3907
723.405	0.6126
731.853	0.0043
740.301	0.3171
748.749	0.2722
757.197	0.2757
765.645	0.4794
774.093	0.835
782.541	0.741
790.989	0.7401
799.437	0.979
807.885	0.978
816.333	0.998
824.781	1
833.23	1.002
841.678	1.001
850.126	1.004
858.574	1.004
867.022	1.004
875.47	1.004
883.918	1.004
892.366	1.004
900.814	1.004
909.262	1.004
917.71	1.004
926.158	1.005
934.607	1.008
943.055	1.01
951.503	1.01
959.951	1.011
968.399	1.01
976.847	1.01
985.295	1.01
993.743	1.01
1002.19	1.01
1010.64	1.011
1019.09	1.014
1027.54	1.015
1035.98	1.014
1044.43	1.012
1052.88	1.012
1061.33	1.011
1069.78	1.01
1078.22	1.007
1086.67	1.01
1095.12	1.01
1103.57	1.008
1112.02	1.011
1120.46	1.012
1128.91	1.012
1137.36	1.01
1145.81	1.011
1154.26	1.012
1162.7	1.014
1171.15	1.011
1179.6	1.001
1188.05	1.014
1196.5	1.014
1204.95	1.011
1213.39	1.014
1221.84	1.017
1230.29	1.017
1238.74	1.015
1247.19	1.011
1255.63	1.007
1264.08	0.992
1272.53	0.968
1280.98	0.933
1289.43	0.9
1297.87	0.8509
1306.32	0.8249
1314.77	0.819
1323.22	0.875
1331.67	0.959
1340.11	0.897
1348.56	0.8839
1357.01	0.7571
1365.46	0.6765
1373.91	0.7949
1382.35	0.91
1390.8	0.932
1399.25	0.962
1407.7	0.966
1416.15	0.971
1424.6	0.972
1433.04	0.974
1441.49	0.972
1449.94	0.972
1458.39	0.971
1466.84	0.969
1475.28	0.968
1483.73	0.966
1492.18	0.968
1500.63	0.972
1509.08	0.976
1517.52	0.978
1525.97	0.975
1534.42	0.972
1542.87	0.971
1551.32	0.968
1559.76	0.965
1568.21	0.963
1576.66	0.961
1585.11	0.958
1593.56	0.956
1602	0.956
1610.45	0.956
1618.9	0.958
1627.35	0.958
1635.8	0.959
1644.25	0.961
1652.69	0.963
1661.14	0.965
1669.59	0.968
1678.04	0.969
1686.49	0.968
1694.93	0.966
1703.38	0.965
1711.83	0.963
1720.28	0.962
1728.73	0.961
1737.17	0.959
1745.62	0.958
1754.07	0.958
1762.52	0.959
1770.97	0.959
1779.41	0.959
1787.86	0.959
1796.31	0.959
1804.76	0.959
1813.21	0.959
1821.65	0.959
1830.1	0.959
1838.55	0.959
1847	0.959
1855.45	0.959
1863.9	0.959
1872.34	0.958
1880.79	0.958
1889.24	0.956
1897.69	0.956
1906.14	0.956
1914.58	0.956
1923.03	0.956
1931.48	0.956
1939.93	0.956
1948.38	0.956
1956.82	0.956
1965.27	0.956
1973.72	0.956
1982.17	0.958
1990.62	0.958
1999.06	0.959
2007.51	0.958
2015.96	0.958
2024.41	0.956
2032.86	0.956
2041.3	0.956
2049.75	0.956
2058.2	0.956
2066.65	0.956
2075.1	0.956
2083.55	0.956
2091.99	0.956
2100.44	0.956
2108.89	0.956
2117.34	0.956
2125.79	0.956
2134.23	0.956
2142.68	0.956
2151.13	0.9569
2159.58	0.958
2168.03	0.958
2176.47	0.958
2184.92	0.958
2193.37	0.958
2201.82	0.959
2210.27	0.959
2218.71	0.959
2227.16	0.961
2235.61	0.961
2244.06	0.961
2252.51	0.9614
2260.95	0.961
2269.4	0.962
2277.85	0.962
2286.3	0.962
2294.75	0.963
2303.2	0.966
2311.64	0.9736
2320.09	0.9831
2328.54	0.9949
2336.99	1.001
2345.44	1
2353.88	1.003
2362.33	1.0108
2370.78	1.0033
2379.23	0.9947
2387.68	0.9674
2396.12	0.962
2404.57	0.963
2413.02	0.9634
2421.47	0.965
2429.92	0.965
2438.36	0.9644
2446.81	0.963
2455.26	0.963
2463.71	0.965
2472.16	0.965
2480.61	0.965
2489.05	0.965
2497.5	0.965
2505.95	0.965
2514.4	0.965
2522.85	0.9675
2531.29	0.968
2539.74	0.966
2548.19	0.966
2556.64	0.966
2565.09	0.966
2573.53	0.968
2581.98	0.9683
2590.43	0.965
2598.88	0.966
2607.33	0.966
2615.77	0.966
2624.22	0.966
2632.67	0.965
2641.12	0.963
2649.57	0.9644
2658.01	0.966
2666.46	0.965
2674.91	0.965
2683.36	0.965
2691.81	0.963
2700.26	0.965
2708.7	0.965
2717.15	0.966
2725.6	0.966
2734.05	0.966
2742.5	0.969
2750.94	0.968
2759.39	0.969
2767.84	0.969
2776.29	0.968
2784.74	0.968
2793.18	0.966
2801.63	0.9673
2810.08	0.9677
2818.53	0.966
2826.98	0.968
2835.42	0.9673
2843.87	0.9692
2852.32	0.972
2860.77	0.971
2869.22	0.9698
2877.66	0.969
2886.11	0.971
2894.56	0.971
2903.01	0.971
2911.46	0.971
2919.91	0.971
2928.35	0.9678
2936.8	0.966
2945.25	0.968
2953.7	0.968
2962.15	0.9678
2970.59	0.966
2979.04	0.966
2987.49	0.966
2995.94	0.966
3004.39	0.966
3012.83	0.965
3021.28	0.9655
3029.73	0.966
3038.18	0.9669
3046.63	0.966
3055.07	0.9671
3063.52	0.968
3071.97	0.968
3080.42	0.969
3088.87	0.9685
3097.31	0.968
3105.76	0.967
3114.21	0.968
3122.66	0.969
3131.11	0.969
3139.56	0.969
3148	0.971
3156.45	0.971
3164.9	0.971
3173.35	0.971
3181.8	0.969
3190.24	0.968
3198.69	0.961
3207.14	0.9511
3215.59	0.9291
3224.04	0.8854
3232.48	0.8066
3240.93	0.7584
3249.38	0.6598
3257.83	0.5636
3266.28	0.5311
3274.72	0.5729
3283.17	0.6429
3291.62	0.6378
3300.07	0.652
3308.52	0.5101
3316.96	0.5214
3325.41	0.6241
3333.86	0.7242
3342.31	0.8391
3350.76	0.8987
3359.21	0.955
3367.65	0.9717
3376.1	0.976
3384.55	0.978
3393	0.978
3401.45	0.9762
3409.89	0.9756
3418.34	0.978
3426.79	0.978
3435.24	0.978
3443.69	0.978
3452.13	0.978
3460.58	0.976
3469.03	0.976
3477.48	0.978
3485.93	0.981
3494.37	0.982
3502.82	0.984
3511.27	0.982
3519.72	0.984
3528.17	0.984
3536.61	0.985
3545.06	0.985
3553.51	0.985
3561.96	0.9871
3570.41	0.985
3578.86	0.988
3587.3	0.987
3595.75	0.9856
3604.2	0.989
3612.65	0.989
3621.1	0.994
3629.54	0.985
3637.99	0.9981
3646.44	0.987
3654.89	0.982
3663.34	0.9995
3671.78	0.9834
3680.23	0.992
3688.68	0.9757
3697.13	0.9842
3705.58	0.9843
3714.02	0.9823
3722.47	0.9942
3730.92	1
3739.37	1
3747.82	0.9843
3756.27	0.985
3764.71	0.9773
3773.16	0.981
3781.61	0.9812
