Infrared Spectrum: Acetylene
Formula: C 2 H 2
CAS: 74-86-2
State: gas
Origin: Sadtler Research Labs Under US-EPA Contract
1/CM	ABSORBANCE
450	0.00717409
462	0.0101555
474	0.00670824
486	0.0046585
498	0.00941017
510	0.00260876
522	0.0046585
534	0.00437899
546	0.00596288
558	0.0037268
570	0.00791945
582	0.00493801
594	0.00428582
606	0.00503118
618	0.00521752
630	0.00801262
642	0.013696
654	0.0288827
666	0.0704365
678	0.114133
690	0.176278
702	0.196682
714	0.195843
726	0.167333
738	0.194725
750	0.234043
762	0.260317
774	0.17665
786	0.124661
798	0.0578586
810	0.0255286
822	0.0113667
834	0.00428582
846	0.0037268
858	0.00512435
870	0.00344729
882	0.00493801
894	0.0046585
906	0.00326095
918	0.00344729
930	0.00307461
942	0.00335412
954	0.00409948
966	0.00326095
978	0.00307461
990	0.00419265
1002	0.00288827
1014	0.0037268
1026	0.00307461
1038	0.00335412
1050	0.0037268
1062	0.00326095
1074	0.0037268
1086	0.00344729
1098	0.00354046
1110	0.00307461
1122	0.00326095
1134	0.00326095
1146	0.00344729
1158	0.00344729
1170	0.00354046
1182	0.00437899
1194	0.00568337
1206	0.00642873
1218	0.00773311
1230	0.00801262
1242	0.00922383
1254	0.0128575
1266	0.0267398
1278	0.0483552
1290	0.0695048
1302	0.0760267
1314	0.0539454
1326	0.0249696
1338	0.0560883
1350	0.0752814
1362	0.0744428
1374	0.0552498
1386	0.0374543
1398	0.0177023
1410	0.00987602
1422	0.00540386
1434	0.0037268
1446	0.00428582
1458	0.00354046
1470	0.00409948
1482	0.00326095
1494	0.00307461
1506	0.00326095
1518	0.00260876
1530	0.00260876
1542	0.00251559
1554	0.00326095
1566	0.00307461
1578	0.00391314
1590	0.00335412
1602	0.00270193
1614	0.00298144
1626	0.00335412
1638	0.00260876
1650	0.00307461
1662	0.00251559
1674	0.00307461
1686	0.00381997
1698	0.0046585
1710	0.0055902
1722	0.00736043
1734	0.00875798
1746	0.00763994
1758	0.0065219
1770	0.00493801
1782	0.00381997
1794	0.00335412
1806	0.00298144
1818	0.00298144
1830	0.00260876
1842	0.00242242
1854	0.00270193
1866	0.00260876
1878	0.00260876
1890	0.00298144
1902	0.00260876
1914	0.00298144
1926	0.00223608
1938	0.00288827
1950	0.00270193
1962	0.00288827
1974	0.00270193
1986	0.00288827
1998	0.00242242
2010	0.00270193
2022	0.00260876
2034	0.00223608
2046	0.00251559
2058	0.00214291
2070	0.00242242
2082	0.00260876
2094	0.00242242
2106	0.00242242
2118	0.00251559
2130	0.00288827
2142	0.00251559
2154	0.00223608
2166	0.00223608
2178	0.00288827
2190	0.00260876
2202	0.00223608
2214	0.00214291
2226	0.00204974
2238	0.00204974
2250	0.0018634
2262	0.00223608
2274	0.0018634
2286	0.00214291
2298	0.00251559
2310	0.00270193
2322	0.00214291
2334	0.00111804
2346	0.00214291
2358	0.00251559
2370	0.00177023
2382	0.00307461
2394	0.00214291
2406	0.00214291
2418	0.00214291
2430	0.00167706
2442	0.00177023
2454	0.00214291
2466	0.00167706
2478	0.00177023
2490	0.00177023
2502	0.00139755
2514	0.0018634
2526	0.0018634
2538	0.00130438
2550	0.00167706
2562	0.00167706
2574	0.00177023
2586	0.0018634
2598	0.0018634
2610	0.00242242
2622	0.00409948
2634	0.00381997
2646	0.0046585
2658	0.00288827
2670	0.00633556
2682	0.0065219
2694	0.00288827
2706	0.00270193
2718	0.0018634
2730	0.0018634
2742	0.00158389
2754	0.00139755
2766	0.00139755
2778	0.00139755
2790	0.00074536
2802	0.00121121
2814	0.00158389
2826	0.00177023
2838	0.00139755
2850	0.00167706
2862	0.00158389
2874	0.00130438
2886	0.00204974
2898	0.0018634
2910	0.00223608
2922	0.00177023
2934	0.00223608
2946	0.00223608
2958	0.00223608
2970	0.00344729
2982	0.00177023
2994	0.00260876
3006	0.00242242
3018	0.00409948
3030	0.00288827
3042	0.00177023
3054	0.00214291
3066	0.00130438
3078	0.0018634
3090	0.00242242
3102	0.0018634
3114	0.0018634
3126	0.00167706
3138	0.00167706
3150	0.00251559
3162	0.00307461
3174	0.00428582
3186	0.00922383
3198	0.0185408
3210	0.0386655
3222	0.0747223
3234	0.108543
3246	0.144693
3258	0.172178
3270	0.147768
3282	0.0859027
3294	0.109475
3306	0.179818
3318	0.189787
3330	0.127922
3342	0.0796604
3354	0.037827
3366	0.0133233
3378	0.00549703
3390	0.0018634
3402	0.00177023
3414	0.00242242
3426	0.00177023
3438	0.0018634
3450	0.00260876
3462	0.0018634
3474	0.00260876
3486	0.00139755
3498	0.00204974
3510	0.00167706
3522	0.00111804
3534	0.00177023
3546	0.00158389
3558	0.00177023
3570	0.00130438
3582	0.0009317
3594	0.00121121
3606	0.00177023
3618	0.00177023
3630	0.00204974
3642	0.00242242
3654	0.00074536
3666	0.00167706
3678	0.00223608
3690	0.00139755
3702	0.00177023
3714	0.00223608
3726	0.00158389
3738	0.00204974
3750	0.00083853
3762	0.00121121
3774	0.00260876
3786	0.00251559
3798	0.00177023
3810	0.00111804
3822	0.00335412
3834	0.00354046
3846	0.00307461
3858	0.00381997
3870	0.00437899
3882	0.012578
3894	0.00978285
3906	0.00139755
3918	0.00307461
3930	0.00223608
3942	0.00251559
3954	0.00381997
3966	0.00074536
