Infrared Spectrum: TRIMETHYLVINYLSILANE
Formula: C5 H12 Si
CAS: 754-05-2
State: SOLUTION (10% IN CCl4 FOR 3800-1000, 5% IN CS2 FOR 1300-400, AND 10% IN CCl4 FOR 600-210 CM^-^1)
Boiling point: 55 C
Class: COBLENTZ III
Instrument: PERKIN-ELMER 521 (GRATING)
Instrument parameters: FILTERS AT 3150, 2500, 2000, 1150, 700, 410. GRATING CHANGES: 2000, 630 CM^-^1
Sampling: TRANSMISSION
Path length: 0.011 CM, 0.011 CM, AND 0.020 CM
Resolution: 2
Origin: DOW CORNING CORP.
1/CM	TRANSMITTANCE
210.44	0.937
219.824	0.934
229.208	0.933
238.593	0.933
247.977	0.937
257.361	0.936
266.745	0.936
276.129	0.934
285.514	0.933
294.898	0.938
304.282	0.933
313.666	0.929
323.05	0.922
332.434	0.888
341.819	0.853
351.203	0.7
360.587	0.473
369.971	0.784
379.355	0.872
388.74	0.893
398.124	0.9
407.508	0.903
416.892	0.898
426.276	0.903
435.661	0.909
445.045	0.913
454.429	0.906
463.813	0.896
473.197	0.884
482.581	0.859
491.966	0.797
501.35	0.676
510.734	0.406
520.118	0.195
529.502	0.595
538.887	0.788
548.271	0.846
557.655	0.87
567.039	0.877
576.423	0.874
585.808	0.86
595.192	0.901
604.576	0.908
613.96	0.912
623.344	0.911
632.728	0.906
642.113	0.896
651.497	0.858
660.881	0.695
670.265	0.4251
679.649	0.682
689.034	0.436
698.418	0.718
707.802	0.806
717.186	0.819
726.57	0.809
735.955	0.751
745.339	0.4589
754.723	0.2321
764.107	0.637
773.491	0.751
782.875	0.779
792.26	0.744
801.644	0.658
811.028	0.525
820.412	0.25
829.796	0.024
839.181	0.047
848.565	0.045
857.949	0.069
867.333	0.2801
876.717	0.603
886.102	0.72
895.486	0.791
904.87	0.817
914.254	0.818
923.638	0.794
933.023	0.679
942.407	0.3609
951.791	0.5481
961.175	0.818
970.559	0.86
979.943	0.853
989.328	0.7719
998.712	0.4819
1008.1	0.476
1017.48	0.733
1026.86	0.809
1036.25	0.862
1045.63	0.886
1055.02	0.89
1064.4	0.896
1073.79	0.912
1083.17	0.923
1092.55	0.926
1101.94	0.918
1111.32	0.902
1120.71	0.918
1130.09	0.926
1139.47	0.923
1148.86	0.918
1158.24	0.913
1167.63	0.904
1177.01	0.902
1186.4	0.902
1195.78	0.9
1205.16	0.882
1214.55	0.847
1223.93	0.788
1233.32	0.533
1242.7	0.0689
1252.08	0.497
1261.47	0.656
1270.85	0.672
1280.24	0.77
1289.62	0.844
1299.01	0.844
1308.39	0.843
1317.77	0.84
1327.16	0.829
1336.54	0.81
1345.93	0.803
1355.31	0.791
1364.7	0.766
1374.08	0.751
1383.46	0.705
1392.85	0.583
1402.23	0.2019
1411.62	0.3531
1421	0.652
1430.38	0.712
1439.77	0.701
1449.15	0.725
1458.54	0.759
1467.92	0.798
1477.31	0.853
1486.69	0.868
1496.07	0.872
1505.46	0.872
1514.84	0.87
1524.23	0.873
1533.61	0.911
1542.99	0.93
1552.38	0.925
1561.76	0.917
1571.15	0.898
1580.53	0.88
1589.92	0.7649
1599.3	0.7901
1608.68	0.887
1618.07	0.894
1627.45	0.894
1636.84	0.897
1646.22	0.897
1655.61	0.9
1664.99	0.901
1674.37	0.902
1683.76	0.902
1693.14	0.904
1702.53	0.904
1711.91	0.905
1721.29	0.904
1730.68	0.904
1740.06	0.904
1749.45	0.905
1758.83	0.905
1768.22	0.908
1777.6	0.908
1786.98	0.909
1796.37	0.909
1805.75	0.908
1815.14	0.903
1824.52	0.893
1833.9	0.883
1843.29	0.894
1852.67	0.894
1862.06	0.897
1871.44	0.903
1880.83	0.889
1890.21	0.876
1899.59	0.823
1908.98	0.788
1918.36	0.852
1927.75	0.863
1937.13	0.856
1946.51	0.868
1955.9	0.882
1965.28	0.891
1974.67	0.896
1984.05	0.898
1993.44	0.896
2002.82	0.905
2012.2	0.9155
2021.59	0.9211
2030.97	0.9236
2040.36	0.925
2049.74	0.9234
2059.13	0.9193
2068.51	0.917
2077.89	0.9123
2087.28	0.91
2096.66	0.9118
2106.05	0.9158
2115.43	0.9217
2124.81	0.9269
2134.2	0.929
2143.58	0.931
2152.97	0.931
2162.35	0.931
2171.74	0.932
2181.12	0.932
2190.5	0.933
2199.89	0.9331
2209.27	0.933
2218.66	0.933
2228.04	0.9328
2237.42	0.9298
2246.81	0.9258
2256.19	0.9215
2265.58	0.9144
2274.96	0.9203
2284.35	0.932
2293.73	0.9364
2303.11	0.946
2312.5	0.9464
2321.88	0.947
2331.27	0.9465
2340.65	0.945
2350.03	0.944
2359.42	0.9418
2368.8	0.9388
2378.19	0.937
2387.57	0.936
2396.96	0.9333
2406.34	0.934
2415.72	0.934
2425.11	0.934
2434.49	0.934
2443.88	0.934
2453.26	0.9331
2462.65	0.932
2472.03	0.931
2481.41	0.931
2490.8	0.934
2500.18	0.937
2509.57	0.938
2518.95	0.938
2528.33	0.938
2537.72	0.938
2547.1	0.937
2556.49	0.9368
2565.87	0.936
2575.26	0.9355
2584.64	0.933
2594.02	0.933
2603.41	0.933
2612.79	0.933
2622.18	0.9326
2631.56	0.93
2640.94	0.9246
2650.33	0.922
2659.71	0.924
2669.1	0.923
2678.48	0.9245
2687.87	0.926
2697.25	0.926
2706.63	0.925
2716.02	0.923
2725.4	0.923
2734.79	0.919
2744.17	0.918
2753.56	0.9152
2762.94	0.8978
2772.32	0.8893
2781.71	0.8677
2791.09	0.8417
2800.48	0.8169
2809.86	0.8339
2819.24	0.832
2828.63	0.817
2838.01	0.7979
2847.4	0.7809
2856.78	0.7698
2866.17	0.7449
2875.55	0.7194
2884.93	0.6533
2894.32	0.4921
2903.7	0.5094
2913.09	0.5973
2922.47	0.6049
2931.85	0.5043
2941.24	0.3383
2950.62	0.1628
2960.01	0.0532
2969.39	0.0819
2978.78	0.3505
2988.16	0.6273
2997.54	0.6514
3006.93	0.5891
3016.31	0.633
3025.7	0.7142
3035.08	0.6929
3044.46	0.5618
3053.85	0.4209
3063.23	0.5385
3072.62	0.7863
3082	0.8394
3091.39	0.8556
3100.77	0.865
3110.15	0.867
3119.54	0.869
3128.92	0.8729
3138.31	0.8798
3147.69	0.884
3157.08	0.887
3166.46	0.883
3175.84	0.8737
3185.23	0.8732
3194.61	0.8901
3204	0.9067
3213.38	0.9133
3222.76	0.919
3232.15	0.922
3241.53	0.9232
3250.92	0.9276
3260.3	0.93
3269.69	0.93
3279.07	0.93
3288.45	0.93
3297.84	0.9296
3307.22	0.93
3316.61	0.931
3325.99	0.9325
3335.37	0.934
3344.76	0.936
3354.14	0.934
3363.53	0.9352
3372.91	0.934
3382.3	0.936
3391.68	0.936
3401.06	0.936
3410.45	0.934
3419.83	0.934
3429.22	0.936
3438.6	0.934
3447.99	0.933
3457.37	0.933
3466.75	0.933
3476.14	0.933
3485.52	0.933
3494.91	0.933
3504.29	0.933
3513.67	0.931
3523.06	0.93
3532.44	0.929
3541.83	0.927
3551.21	0.926
3560.6	0.9248
3569.98	0.922
3579.36	0.9233
3588.75	0.924
3598.13	0.924
3607.52	0.924
3616.9	0.9226
3626.28	0.9192
3635.67	0.913
3645.05	0.91
3654.44	0.91
3663.82	0.911
3673.21	0.9141
3682.59	0.918
3691.97	0.916
3701.36	0.9114
3710.74	0.906
3720.13	0.9066
3729.51	0.8978
3738.89	0.891
3748.28	0.8978
3757.66	0.9048
3767.05	0.9108
3776.43	0.912
3785.82	0.9129
3795.2	0.9039
