Infrared Spectrum: Trimethylvinylsilane
Formula: C5 H12 Si
CAS: 754-05-2
State: SOLUTION (10% CCl4 FOR 3800-1335, 10% CS2 FOR 1335-450 CM^-^1)
Class: COBLENTZ III
Instrument: DOW KBr FOREPRISM-GRATING
Instrument parameters: BLAZED AT 3.5, 12.0, 20.0 MICRON AND CHANGED AT 5.0, 7.5, 14.9 MICRON
Sampling: TRANSMISSION
Path length: 0.011 CM, 0.010 CM
Resolution: 2
Origin: DOW CHEMICAL COMPANY
1/CM	TRANSMITTANCE
454	0.8701
463	0.8767
472	0.8765
481	0.8704
490	0.8523
499	0.7979
508	0.669
517	0.3535
526	0.7588
535	0.8726
544	0.9122
553	0.935
562	0.9501
571	0.9517
580	0.9441
589	0.9526
598	0.9527
607	0.9496
616	0.9463
625	0.9367
634	0.927
643	0.9152
652	0.8804
661	0.7496
670	0.3396
679	0.199
688	0.4629
697	0.111
706	0.5232
715	0.696
724	0.719
733	0.6974
742	0.6325
751	0.2911
760	-0.0036
769	0.2382
778	0.5324
787	0.654
796	0.6492
805	0.5808
814	0.4331
823	0.0393
832	-0.0036
841	-0.0036
850	-0.0036
859	-0.0036
868	-0.0036
877	0.1372
886	0.4116
895	0.5637
904	0.6749
913	0.7246
922	0.7292
931	0.6806
940	0.5171
949	-0.0036
958	0.2704
967	0.693
976	0.8185
985	0.8168
994	0.7464
1003	0.3339
1012	-0.0036
1021	0.5621
1030	0.8228
1039	0.8726
1048	0.8974
1057	0.913
1066	0.9216
1075	0.9278
1084	0.9466
1093	0.9529
1102	0.9616
1111	0.9707
1120	0.9771
1129	0.9728
1138	0.9627
1147	0.9603
1156	0.964
1165	0.9538
1174	0.9384
1183	0.9192
1192	0.9185
1201	0.9032
1210	0.8822
1219	0.8428
1228	0.7625
1237	0.5426
1246	-0.0036
1255	0.0205
1264	0.242
1273	0.4675
1282	0.507
1291	0.6928
1300	0.7966
1309	0.8406
1318	0.8491
1327	0.8503
1336	0.8367
1345	0.8235
1354	0.8215
1363	0.802
1372	0.7849
1381	0.7872
1390	0.7216
1399	0.5334
1408	-0.0035
1417	0.3336
1426	0.6312
1435	0.7111
1444	0.6965
1453	0.7269
1462	0.7664
1471	0.8269
1480	0.8647
1489	0.8585
1498	0.8523
1507	0.8383
1516	0.8229
1525	0.8105
1534	0.8301
1543	0.7945
1552	0.7384
1561	0.7495
1570	0.7789
1579	0.8097
1588	0.7684
1597	0.5848
1606	0.8799
1615	0.9026
1624	0.9099
1633	0.9186
1642	0.9186
1651	0.9388
1660	0.9336
1669	0.9238
1678	0.9244
1687	0.9272
1696	0.9234
1705	0.9197
1714	0.9166
1723	0.9149
1732	0.9115
1741	0.9111
1750	0.9185
1759	0.921
1768	0.9131
1777	0.9149
1786	0.917
1795	0.9225
1804	0.9102
1813	0.9102
1822	0.9011
1831	0.8859
1840	0.8878
1849	0.9001
1858	0.9014
1867	0.9015
1876	0.8999
1885	0.8937
1894	0.8725
1903	0.8159
1912	0.7872
1921	0.8519
1930	0.86
1939	0.8522
1948	0.8668
1957	0.891
1966	0.9007
1975	0.8984
1984	0.8998
1993	0.9037
2002	0.8938
2011	0.9066
2020	0.9148
2029	0.9209
2038	0.9248
2047	0.9235
2056	0.9208
2065	0.9151
2074	0.9106
2083	0.9056
2092	0.9028
2101	0.9029
2110	0.9155
2119	0.9191
2128	0.9237
2137	0.9255
2146	0.9266
2155	0.927
2164	0.9276
2173	0.9292
2182	0.9274
2191	0.9269
2200	0.9272
2209	0.9257
2218	0.9236
2227	0.9224
2236	0.9195
2245	0.9156
2254	0.9098
2263	0.9029
2272	0.8951
2281	0.9097
2290	0.9182
2299	0.9213
2308	0.9235
2317	0.9262
2326	0.9264
2335	0.9236
2344	0.9275
2353	0.9294
2362	0.9252
2371	0.9281
2380	0.9255
2389	0.9239
2398	0.9238
2407	0.9236
2416	0.9236
2425	0.9239
2434	0.9223
2443	0.9206
2452	0.9181
2461	0.9145
2470	0.9104
2479	0.9063
2488	0.9096
2497	0.9199
2506	0.9233
2515	0.9248
2524	0.9262
2533	0.9265
2542	0.9266
2551	0.9266
2560	0.9262
2569	0.9255
2578	0.9246
2587	0.9235
2596	0.9224
2605	0.9208
2614	0.9193
2623	0.9175
2632	0.9148
2641	0.9114
2650	0.9091
2659	0.9088
2668	0.9099
2677	0.9115
2686	0.9116
2695	0.911
2704	0.9108
2713	0.9105
2722	0.91
2731	0.9084
2740	0.9035
2749	0.8966
2758	0.8882
2767	0.8753
2776	0.8545
2785	0.8244
2794	0.8009
2803	0.8097
2812	0.8169
2821	0.8134
2830	0.7969
2839	0.7832
2848	0.7773
2857	0.7775
2866	0.763
2875	0.7339
2884	0.659
2893	0.52
2902	0.3776
2911	0.5327
2920	0.5779
2929	0.5276
2938	0.2945
2947	0.0603
2956	-0.0036
2965	-0.0036
2974	0.114
2983	0.4819
2992	0.6221
3001	0.5859
3010	0.5151
3019	0.5963
3028	0.6777
3037	0.6024
3046	0.4518
3055	0.3142
3064	0.7472
3073	0.8061
3082	0.8272
3091	0.8415
3100	0.8481
3109	0.8534
3118	0.8605
3127	0.8673
3136	0.874
3145	0.8787
3154	0.8838
3163	0.8727
3172	0.8561
3181	0.8575
3190	0.8824
3199	0.8973
3208	0.9087
3217	0.917
3226	0.9169
3235	0.919
3244	0.9211
3253	0.9286
3262	0.9309
3271	0.9318
3280	0.9306
3289	0.9294
3298	0.9279
3307	0.9268
3316	0.9255
3325	0.9239
3334	0.9214
3343	0.919
3352	0.9162
3361	0.914
3370	0.9132
3379	0.9103
3388	0.91
3397	0.9102
3406	0.9108
3415	0.9107
3424	0.9117
3433	0.9132
3442	0.9147
3451	0.9159
3460	0.9171
3469	0.9178
3478	0.9185
3487	0.9189
3496	0.9193
3505	0.9178
3514	0.9144
3523	0.9103
3532	0.9093
3541	0.9075
3550	0.9057
3559	0.9047
3568	0.9048
3577	0.9064
3586	0.907
3595	0.9064
3604	0.9015
3613	0.8938
3622	0.887
3631	0.8864
3640	0.886
3649	0.8883
3658	0.899
3667	0.9019
3676	0.9
3685	0.8955
3694	0.8912
3703	0.8862
3712	0.8781
3721	0.8742
3730	0.882
3739	0.885
3748	0.8937
3757	0.8952
3766	0.8893
3775	0.8839
3784	0.8892
3793	0.8942
