Infrared Spectrum: Methallylcyanide
Formula: C 5 H 7 N
CAS: 4786-19-0
State: gas
Origin: EPA-IR VAPOR PHASE LIBRARY
1/CM	ABSORBANCE
549.8	0.00037
559.445	0.001074
569.09	0.000733
578.734	0.000739
588.379	0.000408
598.024	0.000724
607.669	0.00081
617.313	0.000649
626.958	0.001012
636.603	0.000675
646.248	0.0015847
655.893	0.0017376
665.537	0.001481
675.182	0.0016646
684.827	0.001255
694.472	0.001032
704.116	0.001139
713.761	0.001223
723.406	0.0013011
733.051	0.001106
742.695	0.0015051
752.34	0.0015442
761.985	0.001192
771.63	0.0021561
781.275	0.0021044
790.919	0.00292
800.564	0.00372
810.209	0.00341
819.854	0.00297
829.498	0.0022191
839.143	0.0018047
848.788	0.0018496
858.433	0.0015476
868.078	0.00145582
877.722	0.001163
887.367	0.001151
897.012	0.00144127
906.657	0.0013114
916.301	0.001213
925.946	0.0019428
935.591	0.00143504
945.236	0.0016654
954.88	0.0015001
964.525	0.0016821
974.17	0.001231
983.815	0.0014749
993.46	0.0014857
1003.1	0.00142945
1012.75	0.0015342
1022.39	0.0021392
1032.04	0.0017007
1041.68	0.0020017
1051.33	0.00282
1060.97	0.00371
1070.62	0.00488
1080.26	0.00454
1089.91	0.00487
1099.55	0.00316
1109.2	0.0019356
1118.84	0.0017248
1128.49	0.001012
1138.13	0.001097
1147.78	0.001051
1157.42	0.001012
1167.07	0.001065
1176.71	0.001018
1186.36	0.00117
1196	0.00089
1205.64	0.000659
1215.29	0.00052
1224.93	0.000548
1234.58	0.000725
1244.22	0.001015
1253.87	0.001123
1263.51	0.000649
1273.16	0.000871
1282.8	0.001043
1292.45	0.001137
1302.09	0.00139342
1311.74	0.0016027
1321.38	0.0018563
1331.03	0.0019426
1340.67	0.00259
1350.32	0.00347
1359.96	0.00484
1369.61	0.00588
1379.25	0.00661
1388.9	0.00658
1398.54	0.00592
1408.18	0.00448
1417.83	0.00394
1427.47	0.00428
1437.12	0.0045
1446.76	0.00483
1456.41	0.00468
1466.05	0.00406
1475.7	0.0035
1485.34	0.00315
1494.99	0.00288
1504.63	0.00264
1514.28	0.0025
1523.92	0.0021364
1533.57	0.002111
1543.21	0.0021483
1552.86	0.0021637
1562.5	0.0021366
1572.15	0.0023183
1581.79	0.00249
1591.44	0.00267
1601.08	0.00276
1610.73	0.00268
1620.37	0.00272
1630.01	0.0031
1639.66	0.0034
1649.3	0.0035
1658.95	0.00296
1668.59	0.00289
1678.24	0.00372
1687.88	0.00738
1697.53	0.01273
1707.17	0.01473
1716.82	0.01541
1726.46	0.01583
1736.11	0.00778
1745.75	0.00467
1755.4	0.00239
1765.04	0.0016008
1774.69	0.0015752
1784.33	0.0014709
1793.98	0.0014896
1803.62	0.0014938
1813.27	0.00139454
1822.91	0.00142667
1832.55	0.0013007
1842.2	0.00145582
1851.84	0.00140542
1861.49	0.00136307
1871.13	0.0013441
1880.78	0.00138613
1890.42	0.0014914
1900.07	0.00142581
1909.71	0.0014721
1919.36	0.00145908
1929	0.00143032
1938.65	0.0015992
1948.29	0.0015784
1957.94	0.0015972
1967.58	0.0013685
1977.23	0.00144883
1986.87	0.00143616
1996.52	0.00140976
2006.16	0.0015189
2015.81	0.0014952
2025.45	0.0016104
2035.1	0.00144868
2044.74	0.0014556
2054.38	0.0015105
2064.03	0.0015111
2073.67	0.00144229
2083.32	0.00145945
2092.96	0.0014627
2102.61	0.001504
2112.25	0.00136737
2121.9	0.0014753
2131.54	0.0015295
2141.19	0.0014788
2150.83	0.0015381
2160.48	0.0015224
2170.12	0.0017608
2179.77	0.0016403
2189.41	0.0016612
2199.06	0.0020939
2208.7	0.00243
2218.35	0.00345
2227.99	0.00342
2237.64	0.00302
2247.28	0.0019808
2256.92	0.0016429
2266.57	0.001831
2276.21	0.0016146
2285.86	0.0015859
2295.5	0.0017227
2305.15	0.0017593
2314.79	0.0015373
2324.44	0.0017809
2334.08	0.0015848
2343.73	0.0017306
2353.37	0.0017432
2363.02	0.0018456
2372.66	0.0016876
2382.31	0.0018773
2391.95	0.0016993
2401.6	0.0017354
2411.24	0.0016493
2420.89	0.0017252
2430.53	0.0018058
2440.18	0.0017028
2449.82	0.0017756
2459.47	0.0017415
2469.11	0.0018012
2478.75	0.0018608
2488.4	0.0018169
2498.04	0.001809
2507.69	0.0018068
2517.33	0.0017519
2526.98	0.0017119
2536.62	0.0016889
2546.27	0.001747
2555.91	0.0018057
2565.56	0.0019011
2575.2	0.0017979
2584.85	0.0019999
2594.49	0.001786
2604.14	0.0017775
2613.78	0.0016481
2623.43	0.001852
2633.07	0.001889
2642.72	0.0019197
2652.36	0.0019395
2662.01	0.0017276
2671.65	0.0020278
2681.29	0.0019133
2690.94	0.0020119
2700.58	0.0021529
2710.23	0.0021407
2719.87	0.001997
2729.52	0.0021498
2739.16	0.0022982
2748.81	0.00257
2758.45	0.0028
2768.1	0.00256
2777.74	0.00273
2787.39	0.00291
2797.03	0.00292
2806.68	0.00318
2816.32	0.00327
2825.97	0.00393
2835.61	0.00419
2845.26	0.00478
2854.9	0.00509
2864.55	0.00494
2874.19	0.00502
2883.84	0.00496
2893.48	0.00494
2903.12	0.00533
2912.77	0.00669
2922.41	0.00803
2932.06	0.00849
2941.7	0.00834
2951.35	0.0075
2960.99	0.00656
2970.64	0.00608
2980.28	0.00588
2989.93	0.00495
2999.57	0.00492
3009.22	0.00392
3018.86	0.0031
3028.51	0.00284
3038.15	0.00291
3047.8	0.00282
3057.44	0.00323
3067.09	0.00278
3076.73	0.00306
3086.38	0.00275
3096.02	0.00251
3105.67	0.0023199
3115.31	0.00238
3124.95	0.0021514
3134.6	0.0022107
3144.24	0.0021146
3153.89	0.001986
3163.53	0.0018473
3173.18	0.0017422
3182.82	0.0018442
3192.47	0.0018721
3202.11	0.0021102
3211.76	0.0020049
3221.4	0.0021457
3231.05	0.0020708
3240.69	0.0020373
3250.34	0.0016764
3259.98	0.0019092
3269.63	0.0018
3279.27	0.0018841
3288.92	0.001969
3298.56	0.0015601
3308.21	0.0015454
3317.85	0.0015568
3327.49	0.0018457
3337.14	0.00145412
3346.78	0.0016363
3356.43	0.0018401
3366.07	0.0017737
3375.72	0.0019394
3385.36	0.0016505
3395.01	0.0018114
3404.65	0.0015249
3414.3	0.0018961
3423.94	0.0019721
3433.59	0.0015455
3443.23	0.0016376
3452.88	0.0013413
3462.52	0.0017319
3472.17	0.0015713
3481.81	0.0017192
3491.46	0.001705
3501.1	0.0014478
3510.75	0.0013489
3520.39	0.0013427
3530.04	0.0013154
3539.68	0.0012717
3549.32	0.0018463
3558.97	0.001202
3568.61	0.0015127
3578.26	0.0018904
3587.9	0.00142465
3597.55	0.001151
3607.19	0.001726
3616.84	0.0013269
3626.48	0.0014791
3636.13	0.0016028
3645.77	0.001124
3655.42	0.00135173
3665.06	0.001682
3674.71	0.0013029
3684.35	0.001067
3694	0.0016848
3703.64	0.0016972
3713.29	0.0018875
3722.93	0.0015464
3732.58	0.00135622
3742.22	0.0016675
3751.86	0.00140046
3761.51	0.0014922
3771.15	0.00137056
3780.8	0.0019062
3790.44	0.0016094
3800.09	0.001313
3809.73	0.0014694
3819.38	0.0019818
3829.02	0.0017583
3838.67	0.0019019
3848.31	0.0016046
3857.96	0.0017446
3867.6	0.0015057
3877.25	0.001562
3886.89	0.0016453
3896.54	0.0016523
3906.18	0.0015293
3915.83	0.0018674
3925.47	0.0017765
3935.12	0.0015557
3944.76	0.0014704
3954.41	0.0017262
3964.05	0.001287
3973.69	0.0016281
3983.34	0.001482
3992.98	0.001188
