Infrared Spectrum: 1-PROPENE, 3-ETHOXY-
Formula: C5 H10 O
CAS: 557-31-3
State: SOLUTION (10% IN CCl4 FOR 3800-1300, 10% IN CS2 FOR 1300-650, 10% IN CCl4 FOR 650-250 CM^-^1) VERSUS SOLVENT
Class: COBLENTZ III
Instrument: PERKIN-ELMER 521 (GRATING)
Instrument parameters: FILTERS AT 3150, 2500, 2000, 1150, 700, 410; GRATING CHANGES AT 2000, 630 CM^-^1
Sampling: TRANSMISSION
Path length: 0.012, 0.011, AND 0.010 CM (CsBr CELL)
Resolution: 4
Origin: DOW CORNING CORP.
1/CM	TRANSMITTANCE
243.373	0.716
252.245	0.726
261.117	0.741
269.989	0.75
278.86	0.756
287.732	0.765
296.604	0.78
305.476	0.786
314.348	0.79
323.22	0.79
332.091	0.782
340.963	0.796
349.835	0.802
358.707	0.798
367.579	0.798
376.451	0.809
385.323	0.808
394.194	0.789
403.066	0.79
411.938	0.793
420.81	0.79
429.682	0.776
438.554	0.756
447.425	0.742
456.297	0.725
465.169	0.72
474.041	0.726
482.913	0.721
491.785	0.742
500.657	0.762
509.528	0.785
518.4	0.785
527.272	0.772
536.144	0.776
545.016	0.76
553.888	0.658
562.759	0.688
571.631	0.766
580.503	0.778
589.375	0.774
598.247	0.769
607.119	0.761
615.991	0.745
624.862	0.71
633.734	0.708
642.606	0.714
651.478	0.733
660.35	0.769
669.222	0.812
678.093	0.824
686.965	0.832
695.837	0.816
704.709	0.849
713.581	0.858
722.453	0.85
731.325	0.8128
740.196	0.864
749.068	0.869
757.94	0.876
766.812	0.878
775.684	0.872
784.556	0.862
793.427	0.844
802.299	0.825
811.171	0.808
820.043	0.818
828.915	0.813
837.787	0.756
846.659	0.658
855.53	0.776
864.402	0.762
873.274	0.692
882.146	0.5841
891.018	0.6759
899.89	0.652
908.761	0.4731
917.633	0.0621
926.505	0.058
935.377	0.47
944.249	0.629
953.121	0.697
961.993	0.649
970.864	0.538
979.736	0.3942
988.608	0.206
997.48	0.152
1006.35	0.394
1015.22	0.336
1024.1	0.424
1032.97	0.554
1041.84	0.576
1050.71	0.4781
1059.58	0.3251
1068.45	0.194
1077.33	0.266
1086.2	0.1841
1095.07	0.014
1103.94	0.016
1112.81	0.018
1121.69	0.025
1130.56	0.049
1139.43	0.142
1148.3	0.15
1157.17	0.2209
1166.05	0.3529
1174.92	0.434
1183.79	0.58
1192.66	0.732
1201.53	0.772
1210.4	0.781
1219.28	0.782
1228.15	0.768
1237.02	0.729
1245.89	0.73
1254.76	0.694
1263.64	0.5261
1272.51	0.553
1281.38	0.649
1290.25	0.636
1299.12	0.682
1307.99	0.773
1316.87	0.78
1325.74	0.757
1334.61	0.6541
1343.48	0.262
1352.35	0.392
1361.23	0.6289
1370.1	0.477
1378.97	0.412
1387.84	0.489
1396.71	0.321
1405.58	0.4659
1414.46	0.4901
1423.33	0.445
1432.2	0.501
1441.07	0.4501
1449.94	0.4
1458.82	0.44
1467.69	0.633
1476.56	0.644
1485.43	0.484
1494.3	0.757
1503.18	0.813
1512.05	0.834
1520.92	0.844
1529.79	0.841
1538.66	0.838
1547.53	0.832
1556.41	0.833
1565.28	0.836
1574.15	0.838
1583.02	0.842
1591.89	0.848
1600.77	0.845
1609.64	0.848
1618.51	0.84
1627.38	0.836
1636.25	0.797
1645.12	0.652
1654	0.753
1662.87	0.852
1671.74	0.862
1680.61	0.865
1689.48	0.865
1698.36	0.872
1707.23	0.874
1716.1	0.876
1724.97	0.876
1733.84	0.874
1742.72	0.874
1751.59	0.877
1760.46	0.88
1769.33	0.878
1778.2	0.884
1787.07	0.884
1795.95	0.884
1804.82	0.884
1813.69	0.882
1822.56	0.88
1831.43	0.87
1840.31	0.852
1849.18	0.813
1858.05	0.804
1866.92	0.826
1875.79	0.856
1884.66	0.877
1893.54	0.874
1902.41	0.87
1911.28	0.87
1920.15	0.87
1929.02	0.866
1937.9	0.857
1946.77	0.849
1955.64	0.856
1964.51	0.857
1973.38	0.856
1982.25	0.845
1991.13	0.848
2000	0.861
2008.87	0.8645
2017.74	0.873
2026.61	0.877
2035.49	0.878
2044.36	0.881
2053.23	0.881
2062.1	0.8815
2070.97	0.88
2079.85	0.877
2088.72	0.874
2097.59	0.873
2106.46	0.866
2115.33	0.866
2124.2	0.869
2133.08	0.873
2141.95	0.876
2150.82	0.876
2159.69	0.876
2168.56	0.8725
2177.44	0.87
2186.31	0.869
2195.18	0.869
2204.05	0.866
2212.92	0.868
2221.79	0.87
2230.67	0.87
2239.54	0.868
2248.41	0.866
2257.28	0.866
2266.15	0.869
2275.03	0.87
2283.9	0.872
2292.77	0.874
2301.64	0.878
2310.51	0.877
2319.39	0.876
2328.26	0.8735
2337.13	0.876
2346	0.874
2354.87	0.872
2363.74	0.872
2372.62	0.873
2381.49	0.8725
2390.36	0.869
2399.23	0.8685
2408.1	0.869
2416.98	0.869
2425.85	0.866
2434.72	0.865
2443.59	0.868
2452.46	0.869
2461.33	0.872
2470.21	0.8675
2479.08	0.87
2487.95	0.87
2496.82	0.87
2505.69	0.872
2514.57	0.866
2523.44	0.8645
2532.31	0.866
2541.18	0.867
2550.05	0.864
2558.92	0.859
2567.8	0.846
2576.67	0.8455
2585.54	0.841
2594.41	0.8365
2603.28	0.825
2612.16	0.827
2621.03	0.83
2629.9	0.833
2638.77	0.836
2647.64	0.8335
2656.52	0.826
2665.39	0.8071
2674.26	0.786
2683.13	0.7835
2692	0.765
2700.87	0.754
2709.75	0.748
2718.62	0.726
2727.49	0.708
2736.36	0.6885
2745.23	0.6771
2754.11	0.653
2762.98	0.6091
2771.85	0.582
2780.72	0.5361
2789.59	0.519
2798.46	0.51
2807.34	0.489
2816.21	0.4061
2825.08	0.2801
2833.95	0.1761
2842.82	0.0836
2851.7	0.053
2860.57	0.0385
2869.44	0.046
2878.31	0.0869
2887.18	0.129
2896.06	0.166
2904.93	0.236
2913.8	0.294
2922.67	0.2701
2931.54	0.2095
2940.41	0.2418
2949.29	0.33
2958.16	0.384
2967.03	0.273
2975.9	0.0331
2984.77	0.0605
2993.65	0.1888
3002.52	0.4352
3011.39	0.504
3020.26	0.5029
3029.13	0.6319
3038	0.6949
3046.88	0.721
3055.75	0.706
3064.62	0.656
3073.49	0.5836
3082.36	0.5001
3091.24	0.5639
3100.11	0.6518
3108.98	0.78
3117.85	0.812
3126.72	0.8345
3135.59	0.84
3144.47	0.843
3153.34	0.845
3162.21	0.851
3171.08	0.853
3179.95	0.854
3188.83	0.856
3197.7	0.854
3206.57	0.857
3215.44	0.856
3224.31	0.858
3233.19	0.864
3242.06	0.868
3250.93	0.8695
3259.8	0.866
3268.67	0.869
3277.54	0.865
3286.42	0.867
3295.29	0.868
3304.16	0.868
3313.03	0.865
3321.9	0.8665
3330.78	0.866
3339.65	0.864
3348.52	0.864
3357.39	0.862
3366.26	0.862
3375.13	0.863
3384.01	0.861
3392.88	0.862
3401.75	0.86
3410.62	0.859
3419.49	0.858
3428.37	0.8565
3437.24	0.857
3446.11	0.854
3454.98	0.85
3463.85	0.845
3472.73	0.844
3481.6	0.844
3490.47	0.846
3499.34	0.849
3508.21	0.854
3517.08	0.8575
3525.96	0.862
3534.83	0.868
3543.7	0.872
3552.57	0.873
3561.44	0.874
3570.32	0.8775
3579.19	0.89
3588.06	0.881
3596.93	0.88
3605.8	0.877
3614.67	0.874
3623.55	0.877
3632.42	0.878
3641.29	0.882
3650.16	0.881
3659.03	0.882
3667.91	0.878
3676.78	0.874
3685.65	0.877
3694.52	0.8815
3703.39	0.888
3712.26	0.892
3721.14	0.892
3730.01	0.89
3738.88	0.89
3747.75	0.8885
3756.62	0.889
3765.5	0.889
3774.37	0.888
3783.24	0.886
