Infrared Spectrum: Ether, allyl ethyl
Formula: C5 H10 O
CAS: 557-31-3
State: SOLUTION (10% CCl4 FOR 3800-1330, 10% CS2 FOR 1330-400)
Class: COBLENTZ III
Instrument: BECKMAN IR-9 (GRATING)
Instrument parameters: ORDER CHANGES: 670, 1200, 2000 CM^-^1
Sampling: TRANSMISSION
Path length: 0.011 CM, 0.010 CM
Resolution: 2
Origin: DOW CHEMICAL COMPANY
1/CM	TRANSMITTANCE
3794	0.8498
3785	0.8502
3776	0.8507
3767	0.8507
3758	0.8501
3749	0.8494
3740	0.8486
3731	0.8484
3722	0.8458
3713	0.8424
3704	0.8394
3695	0.8357
3686	0.8379
3677	0.8433
3668	0.8477
3659	0.847
3650	0.8445
3641	0.8418
3632	0.8434
3623	0.844
3614	0.8449
3605	0.8446
3596	0.8444
3587	0.843
3578	0.8388
3569	0.8388
3560	0.8383
3551	0.8356
3542	0.8315
3533	0.8273
3524	0.8218
3515	0.8177
3506	0.8153
3497	0.8134
3488	0.8137
3479	0.817
3470	0.8203
3461	0.8242
3452	0.8281
3443	0.8318
3434	0.8356
3425	0.8379
3416	0.8411
3407	0.8434
3398	0.8433
3389	0.8436
3380	0.844
3371	0.8451
3362	0.8461
3353	0.8455
3344	0.8466
3335	0.8464
3326	0.8476
3317	0.8491
3308	0.8515
3299	0.8504
3290	0.8499
3281	0.8483
3272	0.8478
3263	0.8454
3254	0.8439
3245	0.8428
3236	0.8433
3227	0.8429
3218	0.843
3209	0.842
3200	0.8401
3191	0.8401
3182	0.8382
3173	0.8376
3164	0.8375
3155	0.836
3146	0.8339
3137	0.8298
3128	0.8206
3119	0.8004
3110	0.7373
3101	0.6796
3092	0.5874
3083	0.504
3074	0.6269
3065	0.7117
3056	0.7327
3047	0.7343
3038	0.7189
3029	0.6069
3020	0.5271
3011	0.5353
3002	0.4242
2993	0.1727
2984	0.0357
2975	0.0891
2966	0.2723
2957	0.423
2948	0.3392
2939	0.2323
2930	0.2517
2921	0.3146
2912	0.298
2903	0.1999
2894	0.1785
2885	0.1139
2876	0.0546
2867	0.0597
2858	0.0795
2849	0.1115
2840	0.1726
2831	0.242
2822	0.3724
2813	0.4738
2804	0.5351
2795	0.5453
2786	0.5385
2777	0.5584
2768	0.6195
2759	0.658
2750	0.7131
2741	0.7156
2732	0.7267
2723	0.7427
2714	0.7584
2705	0.7686
2696	0.7747
2687	0.8027
2678	0.8084
2669	0.8212
2660	0.837
2651	0.8449
2642	0.846
2633	0.8452
2624	0.8366
2615	0.8331
2606	0.8385
2597	0.8452
2588	0.8512
2579	0.8574
2570	0.8628
2561	0.8674
2552	0.8706
2543	0.8737
2534	0.8756
2525	0.8773
2516	0.8784
2507	0.8794
2498	0.8802
2489	0.8806
2480	0.8788
2471	0.8766
2462	0.8772
2453	0.8759
2444	0.8739
2435	0.8732
2426	0.8732
2417	0.8739
2408	0.8756
2399	0.8769
2390	0.8768
2381	0.8699
2372	0.8609
2363	0.8591
2354	0.8648
2345	0.8678
2336	0.8673
2327	0.8712
2318	0.8749
2309	0.8754
2300	0.8684
2291	0.8671
2282	0.8652
2273	0.8656
2264	0.8656
2255	0.8682
2246	0.8708
2237	0.8737
2228	0.8767
2219	0.8737
2210	0.8718
2201	0.8708
2192	0.8711
2183	0.873
2174	0.8752
2165	0.8756
2156	0.8745
2147	0.8722
2138	0.8697
2129	0.8644
2120	0.8641
2111	0.8669
2102	0.8711
2093	0.8745
2084	0.8766
2075	0.8776
2066	0.875
2057	0.8714
2048	0.8671
2039	0.862
2030	0.8551
2021	0.847
2012	0.8367
2003	0.8252
1994	0.8159
1985	0.8283
1976	0.8411
1967	0.8446
1958	0.8474
1949	0.8444
1940	0.8428
1931	0.8522
1922	0.861
1913	0.8625
1904	0.8617
1895	0.8628
1886	0.8618
1877	0.849
1868	0.8177
1859	0.7977
1850	0.7973
1841	0.8226
1832	0.8506
1823	0.8686
1814	0.8778
1805	0.8817
1796	0.8817
1787	0.8763
1778	0.8704
1769	0.8644
1760	0.8607
1751	0.8555
1742	0.85
1733	0.8519
1724	0.8539
1715	0.8533
1706	0.8534
1697	0.8539
1688	0.8509
1679	0.8471
1670	0.8417
1661	0.8132
1652	0.7585
1643	0.7108
1634	0.8073
1625	0.8173
1616	0.8146
1607	0.8127
1598	0.7908
1589	0.7368
1580	0.7387
1571	0.6986
1562	0.6354
1553	0.6765
1544	0.7253
1535	0.7365
1526	0.7602
1517	0.7816
1508	0.7887
1499	0.7606
1490	0.5095
1481	0.6547
1472	0.6505
1463	0.5015
1454	0.457
1445	0.4384
1436	0.5252
1427	0.4859
1418	0.4782
1409	0.5061
1400	0.3102
1391	0.4887
1382	0.4666
1373	0.4506
1364	0.6582
1355	0.3951
1346	0.3813
1337	0.5871
1328	0.7377
1319	0.7564
1310	0.7443
1301	0.6776
1292	0.6418
1283	0.6365
1274	0.5594
1265	0.5491
1256	0.7218
1247	0.7372
1238	0.7474
1229	0.7857
1220	0.783
1211	0.7671
1202	0.7417
1193	0.6982
1184	0.6044
1175	0.441
1166	0.3459
1157	0.2554
1148	0.1693
1139	0.1404
1130	0.033
1121	0.0308
1112	0.0139
1103	0.0164
1094	0.1245
1085	0.2967
1076	0.2144
1067	0.2953
1058	0.4374
1049	0.5798
1040	0.6013
1031	0.5367
1022	0.4338
1013	0.3796
1004	0.4009
995	0.1546
986	0.264
977	0.5084
968	0.645
959	0.7082
950	0.6889
941	0.613
932	0.3831
923	0.0393
914	0.1948
905	0.638
896	0.6943
887	0.5742
878	0.68
869	0.7272
860	0.7353
851	0.6579
842	0.7237
833	0.8272
824	0.8283
815	0.8107
806	0.8277
797	0.8436
788	0.8653
779	0.875
770	0.8788
761	0.8755
752	0.8751
743	0.8737
734	0.872
725	0.872
716	0.8704
707	0.8706
698	0.8691
689	0.8641
680	0.8505
671	0.8244
662	0.7959
653	0.7683
644	0.7714
635	0.7667
626	0.7709
617	0.7948
608	0.8128
599	0.823
590	0.8198
581	0.8141
572	0.8072
563	0.7525
554	0.681
545	0.7883
536	0.8088
527	0.8113
518	0.8064
509	0.7917
500	0.7753
491	0.7504
482	0.7338
473	0.7295
464	0.7079
455	0.6749
446	0.6418
437	0.5895
428	0.5246
419	0.3804
410	0.1466
