Infrared Spectrum: ALLYLETHYL ETHER
Formula: C5 H10 O
CAS: 557-31-3
State: SOLUTION (10% CCl4 FOR 5000-1330, 10% CS2 FOR 1330-625 CM^-^1)
Class: COBLENTZ
Instrument: Not specified, most likely a prism, grating, or hybrid spectrometer.
Sampling: TRANSMISSION
Path length: 0.0111 CM, 0.0115 CM
Resolution: 4
Origin: DOW CHEMICAL COMPANY
MICROMETERS	TRANSMITTANCE
2.062	0.9
2.10314	0.897
2.14427	0.898
2.18541	0.9
2.22654	0.881
2.26768	0.871
2.30881	0.859
2.34995	0.862
2.39109	0.874
2.43222	0.878
2.47336	0.878
2.51449	0.878
2.55563	0.879
2.59676	0.886
2.6379	0.891
2.67903	0.891
2.72017	0.881
2.76131	0.843
2.80244	0.789
2.84358	0.735
2.88471	0.629
2.92585	0.598
2.96698	0.595
3.00812	0.593
3.04926	0.614
3.09039	0.667
3.13153	0.722
3.17266	0.768
3.2138	0.795
3.25493	0.728
3.29607	0.66
3.3372	0.672
3.37834	0.339
3.41948	0.308
3.46061	0.276
3.50175	0.15
3.54288	0.192
3.58402	0.43
3.62515	0.638
3.66629	0.73
3.70743	0.78
3.74856	0.819
3.7897	0.854
3.83083	0.864
3.87197	0.864
3.9131	0.879
3.95424	0.886
3.99538	0.893
4.03651	0.893
4.07765	0.893
4.11878	0.893
4.15992	0.893
4.20105	0.891
4.24219	0.886
4.28332	0.885
4.32446	0.888
4.3656	0.883
4.40673	0.879
4.44787	0.885
4.489	0.891
4.53014	0.895
4.57127	0.897
4.61241	0.897
4.65355	0.898
4.69468	0.898
4.73582	0.898
4.77695	0.898
4.81809	0.898
4.85922	0.898
4.90036	0.898
4.9415	0.893
4.98263	0.885
5.02377	0.866
5.0649	0.866
5.10604	0.878
5.14717	0.876
5.18831	0.879
5.22944	0.883
5.27058	0.888
5.31172	0.885
5.35285	0.873
5.39399	0.852
5.43512	0.84
5.47626	0.874
5.51739	0.895
5.55853	0.898
5.59967	0.898
5.6408	0.897
5.68194	0.89
5.72307	0.874
5.76421	0.83
5.80534	0.782
5.84648	0.799
5.88761	0.831
5.92875	0.85
5.96989	0.835
6.01102	0.771
6.05216	0.725
6.09329	0.68
6.13443	0.79
6.17556	0.801
6.2167	0.782
6.25784	0.72
6.29897	0.658
6.34011	0.627
6.38124	0.603
6.42238	0.535
6.46351	0.492
6.50465	0.521
6.54579	0.61
6.58692	0.651
6.62806	0.686
6.66919	0.723
6.71033	0.704
6.75146	0.608
6.7926	0.656
6.83373	0.619
6.87487	0.506
6.91601	0.459
6.95714	0.499
6.99828	0.502
7.03941	0.459
7.08055	0.459
7.12168	0.463
7.16282	0.397
7.20396	0.427
7.24509	0.463
7.28623	0.456
7.32736	0.578
7.3685	0.54
7.40963	0.466
7.45077	0.435
7.4919	0.627
7.53304	0.66
7.57418	0.675
7.61531	0.679
7.65645	0.646
7.69758	0.62
7.73872	0.62
7.77985	0.643
7.82099	0.632
7.86213	0.593
7.90326	0.578
7.9444	0.651
7.98553	0.699
8.02667	0.715
8.0678	0.73
8.10894	0.753
8.15008	0.759
8.19121	0.751
8.23235	0.746
8.27348	0.742
8.31462	0.684
8.35575	0.614
8.39689	0.6
8.43802	0.572
8.47916	0.511
8.5203	0.475
8.56143	0.452
8.60257	0.394
8.6437	0.327
8.68484	0.269
8.72597	0.24
8.76711	0.241
8.80825	0.202
8.84938	0.135
8.89052	0.087
8.93165	0.07
8.97279	0.056
9.01392	0.054
9.05506	0.042
9.0962	0.041
9.13733	0.041
9.17847	0.06
9.2196	0.111
9.26074	0.161
9.30187	0.193
9.34301	0.198
9.38414	0.192
9.42528	0.231
9.46642	0.279
9.50755	0.317
9.54869	0.349
9.58982	0.382
9.63096	0.413
9.67209	0.42
9.71323	0.415
9.75437	0.392
9.7955	0.38
9.83664	0.365
9.87777	0.351
9.91891	0.355
9.96004	0.368
10.0012	0.331
10.0423	0.224
10.0835	0.168
10.1246	0.181
10.1657	0.219
10.2069	0.279
10.248	0.382
10.2891	0.473
10.3303	0.538
10.3714	0.59
10.4125	0.624
10.4537	0.646
10.4948	0.653
10.5359	0.653
10.5771	0.626
10.6182	0.566
10.6593	0.506
10.7005	0.435
10.7416	0.336
10.7828	0.207
10.8239	0.12
10.865	0.087
10.9062	0.099
10.9473	0.198
10.9884	0.348
11.0296	0.535
11.0707	0.631
11.1118	0.677
11.153	0.701
11.1941	0.704
11.2352	0.686
11.2764	0.626
11.3175	0.576
11.3587	0.569
11.3998	0.59
11.4409	0.622
11.4821	0.639
11.5232	0.651
11.5643	0.66
11.6055	0.662
11.6466	0.662
11.6877	0.66
11.7289	0.656
11.77	0.644
11.8111	0.643
11.8523	0.656
11.8934	0.699
11.9346	0.744
11.9757	0.775
12.0168	0.802
12.058	0.814
12.0991	0.819
12.1402	0.825
12.1814	0.821
12.2225	0.797
12.2636	0.782
12.3048	0.768
12.3459	0.768
12.387	0.775
12.4282	0.785
12.4693	0.79
12.5105	0.795
12.5516	0.807
12.5927	0.819
12.6339	0.826
12.675	0.833
12.7161	0.835
12.7573	0.84
12.7984	0.847
12.8395	0.849
12.8807	0.85
12.9218	0.857
12.9629	0.859
13.0041	0.859
13.0452	0.859
13.0864	0.854
13.1275	0.85
13.1686	0.843
13.2098	0.838
13.2509	0.835
13.292	0.826
13.3332	0.825
13.3743	0.821
13.4154	0.814
13.4566	0.806
13.4977	0.802
13.5388	0.799
13.58	0.795
13.6211	0.787
13.6623	0.782
13.7034	0.777
13.7445	0.77
13.7857	0.763
13.8268	0.758
13.8679	0.754
13.9091	0.751
13.9502	0.742
13.9913	0.737
14.0325	0.732
14.0736	0.723
14.1147	0.716
14.1559	0.71
14.197	0.703
14.2382	0.696
14.2793	0.687
14.3204	0.679
14.3616	0.672
14.4027	0.665
14.4438	0.655
14.485	0.65
14.5261	0.639
14.5672	0.634
14.6084	0.62
14.6495	0.608
14.6906	0.598
14.7318	0.584
14.7729	0.576
14.814	0.567
14.8552	0.559
14.8963	0.555
14.9375	0.545
14.9786	0.536
15.0197	0.526
15.0609	0.511
15.102	0.499
15.1431	0.483
15.1843	0.469
15.2254	0.459
15.2665	0.451
15.3077	0.44
15.3488	0.437
15.3899	0.432
15.4311	0.428
15.4722	0.427
15.5134	0.423
15.5545	0.42
15.5956	0.418
15.6368	0.416
15.6779	0.415
15.719	0.411
15.7602	0.409
15.8013	0.411
15.8424	0.409
15.8836	0.409
