Infrared Spectrum: 2-Methyl-4-pentadiene
Formula: C 6 H 10
CAS: 763-30-4
State: gas
Instrument: HP-GC/MS/IRD
Origin: NIST Mass Spectrometry Data Center
1/CM	ABSORBANCE
550	0.0005004
562	0.000333
574	0.0002754
586	0.0005598
598	0.0010512
610	0.0015444
622	0.0017496
634	0.0016596
646	0.0008856
658	0.0004428
670	0.0003564
682	0.000333
694	0.0001998
706	0.0001692
718	0.0001188
730	0.00018
742	7.2e-05
754	0.000126
766	0.000135
778	0.0001548
790	0.0003402
802	0.0005202
814	0.0009324
826	0.001188
838	0.0014454
850	0.001944
862	0.0037008
874	0.0077004
886	0.0136494
898	0.0177012
910	0.0169614
922	0.0128304
934	0.0075456
946	0.0042192
958	0.0030132
970	0.0034074
982	0.0048852
994	0.0054252
1006	0.0047736
1018	0.002925
1030	0.0016596
1042	0.0010296
1054	0.0007848
1066	0.0006948
1078	0.0006498
1090	0.0006192
1102	0.0006876
1114	0.0007218
1126	0.0004752
1138	0.0002556
1150	0.000189
1162	0.0001296
1174	0.0001692
1186	0.0002826
1198	0.0005328
1210	0.000945
1222	0.001314
1234	0.0012474
1246	0.0010062
1258	0.001476
1270	0.0016128
1282	0.001422
1294	0.0008784
1306	0.000756
1318	0.0007704
1330	0.0008082
1342	0.000936
1354	0.0014004
1366	0.0024516
1378	0.0033552
1390	0.0035856
1402	0.002853
1414	0.0032994
1426	0.0045882
1438	0.005562
1450	0.0053766
1462	0.0041634
1474	0.0027018
1486	0.0014634
1498	0.0009072
1510	0.000684
1522	0.0006516
1534	0.0006498
1546	0.0006624
1558	0.0007128
1570	0.000774
1582	0.0010044
1594	0.0013248
1606	0.0021834
1618	0.0042804
1630	0.0071586
1642	0.0084348
1654	0.0067572
1666	0.0038034
1678	0.0016776
1690	0.0007092
1702	0.0003978
1714	0.0002718
1726	0.0001782
1738	0.000189
1750	0.0002142
1762	0.0003528
1774	0.0006534
1786	0.0009504
1798	0.0010872
1810	0.0010152
1822	0.0011718
1834	0.0012294
1846	0.0010494
1858	0.0004608
1870	0.0001998
1882	0.0001206
1894	0.0001242
1906	0.000108
1918	4.32e-05
1930	4.86e-05
1942	2.88e-05
1954	9e-05
1966	0.0001098
1978	0.0001458
1990	0.0001134
2002	6.84e-05
2014	5.4e-05
2026	4.86e-05
2038	0
2050	2.16e-05
2062	3.24e-05
2074	3.6e-06
2086	7.38e-05
2098	8.46e-05
2110	6.3e-05
2122	5.94e-05
2134	2.88e-05
2146	2.52e-05
2158	5.4e-05
2170	9e-06
2182	7.02e-05
2194	8.46e-05
2206	7.92e-05
2218	7.92e-05
2230	6.66e-05
2242	6.66e-05
2254	4.68e-05
2266	8.64e-05
2278	3.78e-05
2290	2.7e-05
2302	6.48e-05
2314	4.14e-05
2326	5.22e-05
2338	8.28e-05
2350	7.56e-05
2362	7.02e-05
2374	7.92e-05
2386	7.92e-05
2398	5.94e-05
2410	9.72e-05
2422	9.18e-05
2434	6.3e-05
2446	8.46e-05
2458	6.84e-05
2470	6.66e-05
2482	0.000153
2494	0.0001044
2506	8.28e-05
2518	0.000126
2530	0.0001044
2542	0.0001206
2554	0.0001422
2566	0.0001476
2578	0.0001062
2590	9.72e-05
2602	0.0001062
2614	0.0001116
2626	0.000171
2638	0.0001638
2650	0.0002106
2662	0.00018
2674	0.0001782
2686	0.0002628
2698	0.0003276
2710	0.0003762
2722	0.0004266
2734	0.000558
2746	0.000594
2758	0.0005166
2770	0.0005022
2782	0.0006426
2794	0.0008712
2806	0.0012816
2818	0.0020286
2830	0.0028296
2842	0.0036702
2854	0.004356
2866	0.0052488
2878	0.0066978
2890	0.008748
2902	0.0108018
2914	0.0122166
2926	0.012276
2938	0.0115434
2950	0.0100296
2962	0.0100044
2974	0.0122148
2986	0.0127296
2998	0.010287
3010	0.0073926
3022	0.0053712
3034	0.0039492
3046	0.0039258
3058	0.0057258
3070	0.0099162
3082	0.0125118
3094	0.0106542
3106	0.005157
3118	0.0020556
3130	0.001206
3142	0.000828
3154	0.0006498
3166	0.000477
3178	0.000369
3190	0.0002718
3202	0.0001746
3214	0.0002142
3226	0.0001548
3238	0.000162
3250	0.0001548
3262	0.0002124
3274	0.000171
3286	0.0002502
3298	0.0001764
3310	0.000207
3322	0.0002124
3334	0.000153
3346	0.0001278
3358	0.000189
3370	0.0001584
3382	0.0001044
3394	0.0001404
3406	3.6e-05
3418	6.84e-05
3430	0.000108
3442	0.0001206
3454	0.0001404
3466	0.0001386
3478	0.000135
3490	6.66e-05
3502	4.5e-05
3514	4.86e-05
3526	6.66e-05
3538	3.06e-05
3550	7.56e-05
3562	8.1e-05
3574	8.82e-05
3586	6.84e-05
3598	9.36e-05
3610	6.12e-05
3622	0.0001008
3634	1.26e-05
3646	4.5e-05
3658	4.5e-05
3670	5.94e-05
3682	0.0001152
3694	7.38e-05
3706	7.92e-05
3718	7.92e-05
3730	0.0001278
3742	0.0001188
3754	7.74e-05
3766	9.36e-05
3778	7.02e-05
3790	6.66e-05
3802	0.000126
3814	7.56e-05
3826	6.3e-05
3838	4.14e-05
