Infrared Spectrum: Trimethylene oxide
Formula: C 3 H 6 O
CAS: 503-30-0
State: gas
Instrument: HP-GC/MS/IRD
Origin: NIST Mass Spectrometry Data Center
1/CM	ABSORBANCE
550	0.0002349
562	0.0001557
574	8.46e-05
586	1.17e-05
598	8.1e-05
610	0.0001638
622	1.53e-05
634	0.0001305
646	0.0001629
658	0.0001782
670	0.0001737
682	0.0002511
694	0.0001269
706	0.0001143
718	0.0001143
730	0.0002034
742	0.0002646
754	0.0002484
766	0.0002403
778	0.0003474
790	0.0003888
802	0.0003942
814	0.0004644
826	0.0004887
838	0.000567
850	0.0009342
862	0.0014058
874	0.0017496
886	0.0022203
898	0.0027396
910	0.0024939
922	0.0019008
934	0.0013932
946	0.0016254
958	0.0024174
970	0.0038583
982	0.0046386
994	0.0049059
1006	0.0043893
1018	0.0036477
1030	0.0024165
1042	0.0011529
1054	0.0008289
1066	0.0004626
1078	0.0002358
1090	0.0003897
1102	0.0003042
1114	0.0004248
1126	0.0003906
1138	0.0003123
1150	0.0002016
1162	0.0001728
1174	4.5e-06
1186	2.16e-05
1198	0.0001233
1210	0.0002502
1222	0.0003474
1234	0.0003051
1246	0.0003006
1258	0.0002178
1270	8.19e-05
1282	7.92e-05
1294	0.0001026
1306	0.0001143
1318	6.75e-05
1330	0.0001296
1342	0.0001242
1354	0.0001134
1366	0.0001224
1378	0.0001035
1390	0.0001152
1402	0.0001602
1414	0.0001998
1426	0.0002538
1438	0.0003591
1450	0.0003582
1462	0.0003735
1474	0.0003447
1486	0.000297
1498	0.0002331
1510	0.0001593
1522	0.0001656
1534	0.0001701
1546	0.0001305
1558	8.19e-05
1570	0.000153
1582	0.000171
1594	0.0001791
1606	0.0001602
1618	0.0001305
1630	0.0001458
1642	0.0001269
1654	8.37e-05
1666	0.0001215
1678	0.0001152
1690	8.37e-05
1702	2.88e-05
1714	7.83e-05
1726	4.41e-05
1738	3.78e-05
1750	2.25e-05
1762	6.12e-05
1774	3.33e-05
1786	5.31e-05
1798	6.21e-05
1810	0.0001026
1822	0.0001188
1834	0.0001494
1846	0.0001638
1858	0.0001368
1870	0.0001512
1882	0.0001755
1894	0.0001458
1906	0.0001755
1918	0.0001431
1930	0.0001287
1942	0.0001017
1954	8.82e-05
1966	9e-05
1978	7.83e-05
1990	0.000108
2002	0.0001359
2014	0.0001386
2026	0.000144
2038	0.0001332
2050	0.0001116
2062	0.000108
2074	4.77e-05
2086	5.76e-05
2098	8.19e-05
2110	3.69e-05
2122	9.09e-05
2134	9.09e-05
2146	9.54e-05
2158	8.1e-05
2170	7.65e-05
2182	7.47e-05
2194	6.66e-05
2206	6.12e-05
2218	4.59e-05
2230	6.21e-05
2242	8.19e-05
2254	4.23e-05
2266	1.17e-05
2278	1.89e-05
2290	6.84e-05
2302	7.56e-05
2314	3.06e-05
2326	3.6e-05
2338	9e-06
2350	5.4e-06
2362	7.2e-06
2374	4.05e-05
2386	6.03e-05
2398	0.000108
2410	4.41e-05
2422	4.14e-05
2434	4.5e-05
2446	6.03e-05
2458	7.29e-05
2470	7.65e-05
2482	9.45e-05
2494	2.61e-05
2506	0.0001404
2518	5.85e-05
2530	7.74e-05
2542	0.0001098
2554	7.02e-05
2566	0.0001494
2578	9.45e-05
2590	0.0001215
2602	0.0001593
2614	0.0001602
2626	0.0001953
2638	0.0001053
2650	0.0001224
2662	0.0001323
2674	0.000171
2686	0.0001629
2698	0.0001656
2710	0.0002214
2722	0.0002322
2734	0.0002952
2746	0.0003105
2758	0.0003348
2770	0.0003339
2782	0.0004365
2794	0.0005427
2806	0.0005778
2818	0.000774
2830	0.0009189
2842	0.0015606
2854	0.0029808
2866	0.0051615
2878	0.0060327
2890	0.0069435
2902	0.007047
2914	0.0068463
2926	0.0055755
2938	0.009
2950	0.0041706
2962	0.0051813
2974	0.0051642
2986	0.0041823
2998	0.0037989
3010	0.0032922
3022	0.00189
3034	0.0016533
3046	0.0010836
3058	0.0006624
3070	0.0004041
3082	0.0002889
3094	0.0002871
3106	0.000288
3118	0.0002385
3130	0.0001557
3142	0.0001836
3154	0.0002097
3166	0.0001728
3178	0.0001269
3190	8.1e-05
3202	0.0001827
3214	0.0001485
3226	0.0001035
3238	0.0001305
3250	0.000162
3262	0.0001062
3274	0.0001368
3286	0.0001908
3298	0.0001098
3310	0.0001215
3322	0.0001809
3334	5.4e-05
3346	9.63e-05
3358	0.0001899
3370	0.0001521
3382	0.0001989
3394	0.0001395
3406	9e-05
3418	3.87e-05
3430	7.11e-05
3442	0.0001287
3454	4.86e-05
3466	0.0001629
3478	5.85e-05
3490	0.0001017
3502	0.0001323
3514	0.0001179
3526	7.65e-05
3538	9.36e-05
3550	6.93e-05
3562	7.47e-05
3574	7.56e-05
3586	0.0001116
3598	3.87e-05
3610	7.74e-05
3622	0.0001602
3634	9.54e-05
3646	4.77e-05
3658	8.82e-05
3670	5.04e-05
3682	0.0001953
3694	0.0001674
3706	0.0002034
3718	8.19e-05
3730	5.76e-05
3742	0.0001872
3754	7.2e-05
3766	0.0001917
3778	0.0001611
3790	0.0001413
3802	0.0001935
3814	0.000216
3826	0.0001296
3838	0.0002052
