Infrared Spectrum: 1-Propanol, 3-chloro-
Formula: C 3 H 7 Cl O
CAS: 627-30-5
State: gas
Origin: Sadtler Research Labs Under US-EPA Contract
1/CM	ABSORBANCE
450	0.0287446
462	0.0355603
474	0.0586745
486	0.0654903
498	0.0399313
510	0.0170393
522	0.0117053
534	0.00688981
546	0.0118534
558	0.0092605
570	0.00822332
582	0.0100754
594	0.0115571
606	0.0102977
618	0.0137796
630	0.0223734
642	0.0553407
654	0.137278
666	0.165652
678	0.130017
690	0.0371161
702	0.0235587
714	0.0328192
726	0.0824555
738	0.110015
750	0.0623787
762	0.0468211
774	0.0586004
786	0.0611934
798	0.0412648
810	0.0165948
822	0.0155576
834	0.0248922
846	0.039709
858	0.0631937
870	0.0710466
882	0.0639345
894	0.059119
906	0.073195
918	0.10794
930	0.123498
942	0.109422
954	0.0735654
966	0.0663052
978	0.0843076
990	0.111645
1002	0.14676
1014	0.191581
1026	0.295817
1038	0.487102
1050	0.70202
1062	0.67772
1074	0.420575
1086	0.199434
1098	0.106162
1110	0.0756398
1122	0.0756398
1134	0.0745285
1146	0.0708243
1158	0.0708984
1170	0.0726023
1182	0.0787513
1194	0.0870487
1206	0.0924568
1218	0.0953461
1230	0.105199
1242	0.126906
1254	0.153798
1266	0.188766
1278	0.209213
1290	0.222326
1302	0.2224
1314	0.189877
1326	0.133499
1338	0.114534
1350	0.10757
1362	0.10194
1374	0.0948275
1386	0.10431
1398	0.107348
1410	0.097865
1422	0.095272
1434	0.096161
1446	0.112237
1458	0.105199
1470	0.0806034
1482	0.060008
1494	0.0363752
1506	0.0202249
1518	0.0117794
1530	0.00688981
1542	0.00933458
1554	0.00814924
1566	0.00503771
1578	0.00703798
1590	0.00333378
1602	0.0037042
1614	0.00303744
1626	0.00177802
1638	0.00407462
1650	0.000148168
1662	0.00333378
1674	0.00155576
1686	0.0055563
1698	0.0032597
1710	0.0041487
1722	0.00422279
1734	0.00807516
1746	0.00422279
1758	0.00437096
1770	0.00481546
1782	0.00200027
1794	0.00333378
1806	0.0014076
1818	0.00385237
1830	0.00177802
1842	0.00192618
1854	0.00288928
1866	0.00155576
1878	0.00207435
1890	0.00259294
1902	0.0018521
1914	0.00237069
1926	0.0022966
1938	0.00251886
1950	0.00333378
1962	0.0041487
1974	0.00355603
1986	0.0037042
1998	0.00222252
2010	0.00200027
2022	0.00207435
2034	0.00288928
2046	0.00355603
2058	0.0041487
2070	0.00488954
2082	0.00488954
2094	0.00474138
2106	0.00437096
2118	0.00303744
2130	0.00214844
2142	0.00162985
2154	0.00148168
2166	0.00074084
2178	0.000444504
2190	0.00074084
2202	0.00125943
2214	0.0014076
2226	0.00200027
2238	0.0014076
2250	0.000814924
2262	0.00103718
2274	0.00111126
2286	0.00162985
2298	0.000814924
2310	0.00133351
2322	0.00162985
2334	0.00422279
2346	0.0041487
2358	0.00318561
2370	0.00874191
2382	0.00400054
2394	0.00340786
2406	0.00303744
2418	0.00437096
2430	0.00400054
2442	0.00474138
2454	0.00429687
2466	0.00385237
2478	0.00459321
2490	0.00422279
2502	0.00311153
2514	0.00318561
2526	0.00281519
2538	0.00303744
2550	0.00333378
2562	0.00237069
2574	0.00251886
2586	0.00400054
2598	0.00377828
2610	0.00407462
2622	0.00422279
2634	0.00474138
2646	0.00688981
2658	0.00814924
2670	0.00933458
2682	0.0118534
2694	0.014076
2706	0.0157058
2718	0.0179283
2730	0.0205954
2742	0.0248181
2754	0.0279297
2766	0.0303004
2778	0.0328933
2790	0.0341527
2802	0.0367457
2814	0.0411907
2826	0.051118
2838	0.0648976
2850	0.0936422
2862	0.137055
2874	0.20425
2886	0.286483
2898	0.334712
2910	0.311005
2922	0.32271
2934	0.380421
2946	0.446727
2958	0.464729
2970	0.417908
2982	0.317154
2994	0.19899
3006	0.127647
3018	0.0806034
3030	0.0430428
3042	0.0209658
3054	0.0120757
3066	0.0100754
3078	0.00948275
3090	0.00829741
3102	0.00607489
3114	0.00488954
3126	0.00496363
3138	0.00451912
3150	0.00540813
3162	0.00459321
3174	0.00266702
3186	0.00296336
3198	0.00207435
3210	0.0032597
3222	0.00281519
3234	0.00288928
3246	0.0022966
3258	0.00266702
3270	0.000222252
3282	0.00348195
3294	0.00548222
3306	0.00340786
3318	0.00407462
3330	0.00377828
3342	0.00422279
3354	0.00385237
3366	0.00422279
3378	0.00392645
3390	0.00726023
3402	0.00496363
3414	0.0069639
3426	0.00837149
3438	0.00540813
3450	0.00792699
3462	0.00726023
3474	0.00822332
3486	0.00933458
3498	0.00688981
3510	0.00718615
3522	0.0055563
3534	0.00792699
3546	0.0101495
3558	0.00851966
3570	0.0137796
3582	0.0113349
3594	0.0151872
3606	0.0195582
3618	0.031708
3630	0.054674
3642	0.0743803
3654	0.108311
3666	0.170393
3678	0.187581
3690	0.124313
3702	0.0523774
3714	0.0276333
3726	0.0196323
3738	0.0208917
3750	0.0144464
3762	0.0117053
3774	0.0122979
3786	0.0121498
3798	0.0114089
3810	0.0109644
3822	0.0116312
3834	0.0127424
3846	0.0133351
3858	0.0150391
3870	0.014965
3882	0.014076
3894	0.0136315
3906	0.0126684
3918	0.0104458
3930	0.0114089
3942	0.0100754
3954	0.00896416
3966	0.0103718
