Infrared Spectrum: 2,3-Dibromopropene
Formula: C 3 H 4 Br 2
CAS: 513-31-5
State: gas
Origin: EPA-IR VAPOR PHASE LIBRARY
1/CM	ABSORBANCE
501.5	0.0005811
513.074	0.0007081
524.648	0.00173
536.222	0.00476
547.796	0.00973
559.37	0.0091
570.944	0.00627
582.518	0.0109
594.092	0.02461
605.666	0.01986
617.24	0.01097
628.814	0.00935
640.388	0.00432
651.962	0.00198
663.536	0.00222
675.11	0.00323
686.684	0.00321
698.258	0.00575
709.832	0.00681
721.406	0.00243
732.98	0.0006943
744.554	0.0004594
756.128	0.0005241
767.702	0.0004561
779.276	0.0004731
790.85	0.0005434
802.423	0.0003156
813.997	0.0003223
825.571	0.0004568
837.145	0.000633
848.719	0.00104
860.293	0.00255
871.867	0.00673
883.441	0.01555
895.015	0.02935
906.589	0.0253
918.163	0.01135
929.737	0.00438
941.311	0.00276
952.885	0.00159
964.459	0.0009797
976.033	0.0007151
987.607	0.0006088
999.181	0.0005383
1010.76	0.0005209
1022.33	0.0007971
1033.9	0.00127
1045.48	0.00193
1057.05	0.0024
1068.63	0.00294
1080.2	0.0048
1091.77	0.01038
1103.35	0.02133
1114.92	0.01781
1126.49	0.00675
1138.07	0.00332
1149.64	0.00299
1161.22	0.00323
1172.79	0.00517
1184.36	0.01425
1195.94	0.02518
1207.51	0.0207
1219.09	0.01525
1230.66	0.00918
1242.23	0.00401
1253.81	0.00239
1265.38	0.0008226
1276.96	0.0006821
1288.53	0.0006468
1300.1	0.0006981
1311.68	0.0007473
1323.25	0.00115
1334.83	0.00169
1346.4	0.00173
1357.97	0.00137
1369.55	0.00222
1381.12	0.0049
1392.7	0.00626
1404.27	0.00591
1415.84	0.00664
1427.42	0.00654
1438.99	0.00489
1450.57	0.00241
1462.14	0.0009679
1473.71	0.0005609
1485.29	0.0004626
1496.86	0.0004641
1508.44	0.0005088
1520.01	0.0005783
1531.58	0.0006168
1543.16	0.000666
1554.73	0.0007444
1566.31	0.0009045
1577.88	0.00132
1589.45	0.00263
1601.03	0.00637
1612.6	0.01277
1624.18	0.01582
1635.75	0.01212
1647.32	0.00673
1658.9	0.00324
1670.47	0.00132
1682.05	0.0004664
1693.62	0.0002532
1705.19	0.0001644
1716.77	0.000123
1728.34	0.0001385
1739.92	0.0001603
1751.49	0.0003058
1763.06	0.0003797
1774.64	0.0006519
1786.21	0.00152
1797.79	0.00256
1809.36	0.00221
1820.93	0.00101
1832.51	0.0004335
1844.08	0.0002529
1855.66	0.0001524
1867.23	0.0001391
1878.8	9.239e-05
1890.38	0.0001193
1901.95	9.149e-05
1913.53	0.0001075
1925.1	0.0001102
1936.67	0.0001109
1948.25	9.145e-05
1959.82	0.0001171
1971.4	0.0001844
1982.97	0.0001853
1994.54	0.0002092
2006.12	0.0001972
2017.69	0.0001681
2029.27	0.0001581
2040.84	0.0001534
2052.41	0.000166
2063.99	0.0001606
2075.56	0.0001448
2087.14	0.0001345
2098.71	0.0001521
2110.28	0.0001292
2121.86	0.0001103
2133.43	0.0001052
2145.01	0.000136
2156.58	0.0001503
2168.15	0.0001516
2179.73	0.00016
2191.3	0.000155
2202.88	0.0001524
2214.45	0.0001352
2226.02	0.0001541
2237.6	0.0001616
2249.17	0.0001387
2260.74	0.0002024
2272.32	0.0002397
2283.89	0.0003279
2295.47	0.0003701
2307.04	0.000383
2318.61	0.0003027
2330.19	0.0002575
2341.76	0.0002356
2353.34	0.000213
2364.91	0.000164
2376.48	0.0001771
2388.06	0.0001802
2399.63	0.0002496
2411.21	0.0003466
2422.78	0.0003649
2434.35	0.0002909
2445.93	0.0001646
2457.5	0.0001567
2469.08	0.0001718
2480.65	0.000179
2492.22	0.0001743
2503.8	0.0001668
2515.37	0.0001512
2526.95	0.0001442
2538.52	0.0001775
2550.09	0.0001617
2561.67	0.0001491
2573.24	0.0001322
2584.82	0.0001576
2596.39	0.0001158
2607.96	0.0001478
2619.54	0.0001985
2631.11	0.0002259
2642.69	0.000253
2654.26	0.0002472
2665.83	0.0002375
2677.41	0.000192
2688.98	0.0001621
2700.56	0.0002076
2712.13	0.0002199
2723.7	0.0001928
2735.28	0.0002178
2746.85	0.0001736
2758.43	0.0001836
2770	0.000205
2781.57	0.0002431
2793.15	0.000232
2804.72	0.0002722
2816.3	0.0003146
2827.87	0.0003815
2839.44	0.0004738
2851.02	0.0004586
2862.59	0.0003242
2874.17	0.0002635
2885.74	0.0002176
2897.31	0.0002134
2908.89	0.0002668
2920.46	0.0003165
2932.04	0.0003994
2943.61	0.0006355
2955.18	0.00159
2966.76	0.00337
2978.33	0.00361
2989.91	0.00212
3001.48	0.00107
3013.05	0.0008888
3024.63	0.00111
3036.2	0.00107
3047.78	0.0006496
3059.35	0.0003586
3070.92	0.0002347
3082.5	0.0002433
3094.07	0.0003553
3105.65	0.0007482
3117.22	0.0008277
3128.79	0.0003086
3140.37	0.0001658
3151.94	0.0001507
3163.52	0.0001366
3175.09	0.0001425
3186.66	0.0001441
3198.24	0.0001801
3209.81	0.0001725
3221.39	0.0001953
3232.96	0.0002632
3244.53	0.000268
3256.11	0.0002542
3267.68	0.0002008
3279.26	0.0001734
3290.83	0.0001351
3302.4	0.0001469
3313.98	0.0001496
3325.55	0.0001171
3337.13	0.0002181
3348.7	0.0001261
3360.27	0.0001945
3371.85	0.0001505
3383.42	0.0001553
3395	0.0001839
3406.57	0.0002081
3418.14	0.0001685
3429.72	0.0001992
3441.29	0.0001595
3452.86	0.0001748
3464.44	0.0002161
3476.01	4.691e-05
3487.59	0.0002001
3499.16	8.969e-05
3510.73	0.0001442
3522.31	0.0001621
3533.88	0.0001401
3545.46	0.0001388
3557.03	0.0001402
3568.6	0.0001541
3580.18	0.0001638
3591.75	0.0001773
3603.33	0.0002063
3614.9	0.0001746
3626.47	0.0002303
3638.05	0.0001531
3649.62	0.0001712
3661.2	0.0002061
3672.77	0.0002178
3684.34	0.000219
3695.92	0.0002072
3707.49	0.0001572
3719.07	0.0001493
3730.64	0.0001657
3742.21	0.0001558
3753.79	0.000114
3765.36	0.0001094
3776.94	0.0002104
3788.51	0.0001102
3800.08	0.0001468
3811.66	0.0001148
3823.23	0.0002013
3834.81	0.0002648
3846.38	0.0002025
3857.95	0.0002031
3869.53	0.0001764
3881.1	0.0003003
3892.68	0.0002359
3904.25	0.0002561
3915.82	0.0002117
3927.4	0.0002014
3938.97	0.0002381
3950.55	0.000181
3962.12	0.0001647
3973.69	0.0002156
3985.27	0.0002188
3996.84	0.0001476
