Infrared Spectrum: Pentanal
Formula: C 5 H 10 O
CAS: 110-62-3
State: gas
Origin: Sadtler Research Labs Under US-EPA Contract
1/CM	ABSORBANCE
450	0
462	0.0262044
474	0.0322516
486	0.0406702
498	0.0309473
510	0.0385952
522	0.0461245
534	0.0452945
546	0.0367573
558	0.0358087
570	0.0289909
582	0.0340895
594	0.0297616
606	0.0286944
618	0.0311252
630	0.0280423
642	0.0353345
654	0.0382395
666	0.0364609
678	0.0336152
690	0.0380023
702	0.0335559
714	0.033378
726	0.0406702
738	0.0458281
750	0.0470138
762	0.0442866
774	0.0368759
786	0.0345637
798	0.0339709
810	0.0331409
822	0.0382988
834	0.0403738
846	0.0430416
858	0.0426266
870	0.0447016
882	0.0457688
894	0.0483774
906	0.0456502
918	0.0420338
930	0.0419152
942	0.0423302
954	0.0455909
966	0.0542467
978	0.0644439
990	0.0788504
1002	0.0933754
1014	0.0943833
1026	0.0863204
1038	0.0781982
1050	0.0748782
1062	0.0710246
1074	0.0674675
1086	0.0741075
1098	0.0795025
1110	0.0840675
1122	0.0821704
1134	0.082704
1146	0.0809847
1158	0.0840675
1170	0.103039
1182	0.098059
1194	0.078969
1206	0.068831
1218	0.0674675
1230	0.0729811
1242	0.0817554
1254	0.0791468
1266	0.0722103
1278	0.0629024
1290	0.0602939
1302	0.0600567
1314	0.0616574
1326	0.0619539
1338	0.0693646
1350	0.0739296
1362	0.0756489
1374	0.0816368
1386	0.10292
1398	0.0950355
1410	0.0795618
1422	0.0730404
1434	0.0729811
1446	0.0807475
1458	0.0994226
1470	0.108197
1482	0.0709653
1494	0.0431009
1506	0.0323702
1518	0.0284573
1530	0.0281016
1542	0.025078
1554	0.0260858
1566	0.0262044
1578	0.0253151
1590	0.0253744
1602	0.0269158
1614	0.0257894
1626	0.0269158
1638	0.0288723
1650	0.0318959
1662	0.0345637
1674	0.0406109
1686	0.0499188
1698	0.0723289
1710	0.123908
1722	0.206493
1734	0.457273
1746	0.52646
1758	0.354175
1770	0.163807
1782	0.104462
1794	0.0704318
1806	0.0492667
1818	0.0381802
1830	0.032548
1842	0.0301173
1854	0.0286351
1866	0.0279237
1878	0.0270937
1890	0.0261451
1902	0.0260858
1914	0.0251373
1926	0.0249001
1938	0.0244851
1950	0.0241294
1962	0.0240701
1974	0.0240108
1986	0.024248
1998	0.0246037
2010	0.024663
2022	0.0240701
2034	0.0250187
2046	0.0251966
2058	0.0248408
2070	0.0238923
2082	0.0243073
2094	0.0240108
2106	0.0237144
2118	0.023833
2130	0.0240701
2142	0.0234773
2154	0.0239515
2166	0.0241294
2178	0.0243665
2190	0.0241887
2202	0.0246037
2214	0.0244258
2226	0.0243665
2238	0.0249001
2250	0.0247223
2262	0.0248408
2274	0.0251966
2286	0.0255523
2298	0.0265008
2310	0.0273901
2322	0.0273308
2334	0.0256708
2346	0.0283387
2358	0.0261451
2370	0.0307694
2382	0.0290501
2394	0.0266787
2406	0.0263823
2418	0.0273308
2430	0.0270344
2442	0.0264416
2454	0.0265601
2466	0.0264416
2478	0.0263823
2490	0.0272716
2502	0.0269158
2514	0.0272123
2526	0.0276866
2538	0.0283387
2550	0.0288723
2562	0.0294059
2574	0.0304137
2586	0.0313623
2598	0.0332594
2610	0.0348009
2622	0.0360459
2634	0.0395438
2646	0.0447609
2658	0.0524088
2670	0.0647403
2682	0.088099
2694	0.129896
2706	0.198134
2718	0.202225
2730	0.138492
2742	0.101557
2754	0.088929
2766	0.0834747
2778	0.0863797
2790	0.106952
2802	0.145132
2814	0.163867
2826	0.137721
2838	0.112406
2850	0.123196
2862	0.176791
2874	0.263052
2886	0.312971
2898	0.26904
2910	0.261273
2922	0.32382
2934	0.444586
2946	0.517389
2958	0.46913
2970	0.59286
2982	0.367455
2994	0.154677
3006	0.0837711
3018	0.0588117
3030	0.0511638
3042	0.0458281
3054	0.0431009
3066	0.0384173
3078	0.0376466
3090	0.0357495
3102	0.035038
3114	0.0345045
3126	0.0335559
3138	0.0328444
3150	0.0322516
3162	0.0308287
3174	0.0309473
3186	0.0298801
3198	0.0282794
3210	0.0279237
3222	0.027568
3234	0.0262637
3246	0.0261451
3258	0.0244258
3270	0.0251373
3282	0.0261451
3294	0.0261451
3306	0.0270937
3318	0.0265601
3330	0.0289316
3342	0.0266787
3354	0.0272716
3366	0.0287537
3378	0.0281609
3390	0.028398
3402	0.0280423
3414	0.0297023
3426	0.0311252
3438	0.0319552
3450	0.0330816
3462	0.0367573
3474	0.0359866
3486	0.0326073
3498	0.031303
3510	0.029643
3522	0.0304137
3534	0.0291687
3546	0.0302359
3558	0.0343859
3570	0.0390695
3582	0.0429824
3594	0.0359273
3606	0.0388323
3618	0.0350973
3630	0.0394252
3642	0.0377652
3654	0.0381209
3666	0.0394845
3678	0.0332594
3690	0.0308287
3702	0.031303
3714	0.0310659
3726	0.0308287
3738	0.0303544
3750	0.0292873
3762	0.0301766
3774	0.0295837
3786	0.0295837
3798	0.0306509
3810	0.0301766
3822	0.0267973
3834	0.0272123
3846	0.0339709
3858	0.0266194
3870	0.027153
3882	0.0307101
3894	0.0295244
3906	0.0347416
3918	0.0277458
3930	0.0319552
3942	0.0269751
3954	0.0265008
3966	0.0263823
