Infrared Spectrum: PENTANAL
Formula: C5 H10 O
CAS: 110-62-3
State: VAPOR (20 MICROLITER AT 150 C)
Boiling point: 102 C
Class: COBLENTZ
Instrument: PERKIN-ELMER 180
Sampling: TRANSMISSION
Path length: 5 CM KBr CELL, CELL VOLUME: 80 CM^3
Resolution: 2-3 CM^-^1
Origin: PERKIN-ELMER CORP. (M. ZELLER)
1/CM	TRANSMITTANCE
396.094	0.428
405.207	0.4559
414.32	0.509
423.433	0.575
432.546	0.6329
441.66	0.685
450.773	0.712
459.886	0.7609
468.999	0.785
478.112	0.81
487.225	0.827
496.338	0.828
505.451	0.812
514.565	0.805
523.678	0.802
532.791	0.813
541.904	0.832
551.017	0.84
560.13	0.849
569.243	0.856
578.356	0.857
587.47	0.861
596.583	0.86
605.696	0.856
614.809	0.856
623.922	0.852
633.035	0.853
642.148	0.855
651.261	0.851
660.375	0.844
669.488	0.834
678.601	0.847
687.714	0.853
696.827	0.86
705.94	0.86
715.053	0.855
724.166	0.843
733.28	0.826
742.393	0.817
751.506	0.815
760.619	0.814
769.732	0.826
778.845	0.835
787.958	0.842
797.071	0.845
806.185	0.843
815.298	0.839
824.411	0.832
833.524	0.828
842.637	0.826
851.75	0.827
860.863	0.827
869.976	0.825
879.09	0.823
888.203	0.828
897.316	0.832
906.429	0.843
915.542	0.851
924.655	0.852
933.768	0.851
942.881	0.844
951.995	0.836
961.108	0.814
970.221	0.787
979.334	0.754
988.447	0.732
997.56	0.71
1006.67	0.707
1015.79	0.72
1024.9	0.741
1034.01	0.761
1043.13	0.762
1052.24	0.755
1061.35	0.754
1070.47	0.744
1079.58	0.721
1088.69	0.702
1097.8	0.691
1106.92	0.69
1116.03	0.686
1125.14	0.68
1134.26	0.677
1143.37	0.673
1152.48	0.674
1161.6	0.669
1170.71	0.663
1179.82	0.686
1188.94	0.7199
1198.05	0.742
1207.16	0.751
1216.28	0.75
1225.39	0.75
1234.5	0.74
1243.61	0.728
1252.73	0.734
1261.84	0.744
1270.95	0.762
1280.07	0.771
1289.18	0.771
1298.29	0.765
1307.41	0.761
1316.52	0.753
1325.63	0.749
1334.75	0.728
1343.86	0.711
1352.97	0.698
1362.09	0.689
1371.2	0.678
1380.31	0.644
1389.42	0.63
1398.54	0.643
1407.65	0.673
1416.76	0.677
1425.88	0.68
1434.99	0.678
1444.1	0.661
1453.22	0.639
1462.33	0.624
1471.44	0.65
1480.56	0.703
1489.67	0.754
1498.78	0.795
1507.9	0.804
1517.01	0.813
1526.12	0.818
1535.23	0.813
1544.35	0.81
1553.46	0.808
1562.57	0.81
1571.69	0.802
1580.8	0.804
1589.91	0.806
1599.03	0.8
1608.14	0.8
1617.25	0.798
1626.37	0.798
1635.48	0.792
1644.59	0.787
1653.71	0.779
1662.82	0.771
1671.93	0.751
1681.04	0.715
1690.16	0.656
1699.27	0.56
1708.38	0.4731
1717.5	0.3551
1726.61	0.15
1735.72	0.054
1744.84	0.053
1753.95	0.1949
1763.06	0.356
1772.18	0.4559
1781.29	0.55
1790.4	0.635
1799.52	0.7139
1808.63	0.772
1817.74	0.804
1826.85	0.821
1835.97	0.83
1845.08	0.834
1854.19	0.842
1863.31	0.84
1872.42	0.845
1881.53	0.848
1890.65	0.852
1899.76	0.852
1908.87	0.852
1917.99	0.851
1927.1	0.852
1936.21	0.849
1945.33	0.849
1954.44	0.851
1963.55	0.849
1972.66	0.848
1981.78	0.845
1990.89	0.847
2000	0.849
2009.12	0.846
2018.23	0.845
2027.34	0.8461
2036.46	0.845
2045.57	0.8494
2054.68	0.845
2063.8	0.8499
2072.91	0.847
2082.02	0.8437
2091.14	0.847
2100.25	0.842
2109.36	0.843
2118.47	0.8428
2127.59	0.8422
2136.7	0.8438
2145.81	0.843
2154.93	0.8432
2164.04	0.8427
2173.15	0.839
2182.27	0.838
2191.38	0.838
2200.49	0.842
2209.61	0.8359
2218.72	0.8326
2227.83	0.839
2236.95	0.835
2246.06	0.834
2255.17	0.8355
2264.28	0.835
2273.4	0.8316
2282.51	0.8301
2291.62	0.8262
2300.74	0.8221
2309.85	0.8199
2318.96	0.814
2328.08	0.8173
2337.19	0.8188
2346.3	0.8087
2355.42	0.8115
2364.53	0.823
2373.64	0.828
2382.76	0.83
2391.87	0.8289
2400.98	0.8278
2410.09	0.8276
2419.21	0.827
2428.32	0.827
2437.43	0.8248
2446.55	0.8256
2455.66	0.826
2464.77	0.8225
2473.89	0.8231
2483	0.8245
2492.11	0.8248
2501.23	0.822
2510.34	0.8208
2519.45	0.821
2528.57	0.8181
2537.68	0.8146
2546.79	0.813
2555.9	0.8113
2565.02	0.8055
2574.13	0.8017
2583.24	0.7962
2592.36	0.7902
2601.47	0.7817
2610.58	0.7743
2619.7	0.7634
2628.81	0.7482
2637.92	0.7326
2647.04	0.7075
2656.15	0.662
2665.26	0.6174
2674.38	0.544
2683.49	0.4401
2692.6	0.3718
2701.71	0.3827
2710.83	0.4543
2719.94	0.5502
2729.05	0.5974
2738.17	0.6208
2747.28	0.631
2756.39	0.6301
2765.51	0.6042
2774.62	0.5535
2783.73	0.4847
2792.85	0.4461
2801.96	0.4594
2811.07	0.5046
2820.19	0.5578
2829.3	0.5537
2838.41	0.5133
2847.52	0.437
2856.64	0.3492
2865.75	0.2693
2874.86	0.2711
2883.98	0.2923
2893.09	0.2916
2902.2	0.2453
2911.32	0.1826
2920.43	0.124
2929.54	0.087
2938.66	0.095
2947.77	0.0744
2956.88	0.0733
2966	0.1549
2975.11	0.345
2984.22	0.5138
2993.33	0.6166
3002.45	0.6812
3011.56	0.701
3020.67	0.7093
3029.79	0.7187
3038.9	0.7238
3048.01	0.7304
3057.13	0.7408
3066.24	0.745
3075.35	0.7442
3084.47	0.75
3093.58	0.744
3102.69	0.7442
3111.81	0.75
3120.92	0.75
3130.03	0.7487
3139.14	0.7539
3148.26	0.7522
3157.37	0.75
3166.48	0.7528
3175.6	0.751
3184.71	0.7521
3193.82	0.754
3202.94	0.756
3212.05	0.758
3221.16	0.759
3230.28	0.758
3239.39	0.762
3248.5	0.7581
3257.62	0.7614
3266.73	0.7611
3275.84	0.759
3284.95	0.761
3294.07	0.76
3303.18	0.7582
3312.29	0.7604
3321.41	0.758
3330.52	0.7578
3339.63	0.7555
3348.75	0.755
3357.86	0.7577
3366.97	0.7538
3376.09	0.754
3385.2	0.751
3394.31	0.751
3403.43	0.749
3412.54	0.748
3421.65	0.746
3430.76	0.7388
3439.88	0.733
3448.99	0.7255
3458.1	0.721
3467.22	0.7245
3476.33	0.7328
3485.44	0.7423
3494.56	0.742
3503.67	0.7454
3512.78	0.748
3521.9	0.744
3531.01	0.7412
3540.12	0.74
3549.24	0.7338
3558.35	0.7084
3567.46	0.69
3576.57	0.6982
3585.69	0.7164
3594.8	0.733
3603.91	0.731
3613.03	0.733
3622.14	0.733
3631.25	0.7307
3640.37	0.7238
3649.48	0.727
3658.59	0.727
3667.71	0.731
3676.82	0.733
3685.93	0.734
3695.05	0.7375
3704.16	0.737
3713.27	0.7331
3722.38	0.731
3731.5	0.729
3740.61	0.7271
3749.72	0.7284
3758.84	0.731
3767.95	0.729
3777.06	0.7282
3786.18	0.728
3795.29	0.7254
3804.4	0.727
3813.52	0.729
3822.63	0.725
3831.74	0.725
3840.86	0.725
3849.97	0.721
3859.08	0.7227
3868.19	0.724
3877.31	0.7209
3886.42	0.72
3895.53	0.72
3904.65	0.7221
3913.76	0.7209
3922.87	0.72
3931.99	0.72
3941.1	0.72
3950.21	0.719
3959.33	0.718
3968.44	0.7199
