Infrared Spectrum: Dithioxamide
Formula: C 2 H 4 N 2 S 2
CAS: 79-40-3
State: gas
Origin: EPA-IR VAPOR PHASE LIBRARY
1/CM	ABSORBANCE
551.7	0.0072
563.274	0.00475
574.848	0.00315
586.421	0.00259
597.995	0.00224
609.569	0.00205
621.143	0.00184
632.717	0.00183
644.291	0.00174
655.864	0.00169
667.438	0.00165
679.012	0.00166
690.586	0.00167
702.16	0.0016
713.734	0.00163
725.307	0.00162
736.881	0.00154
748.455	0.00148
760.029	0.00147
771.603	0.0015
783.177	0.00152
794.75	0.00149
806.324	0.00149
817.898	0.0016
829.472	0.00191
841.046	0.00242
852.619	0.00374
864.193	0.00451
875.767	0.00411
887.341	0.00241
898.915	0.00201
910.489	0.00198
922.062	0.00192
933.636	0.00193
945.21	0.00206
956.784	0.00203
968.358	0.00207
979.932	0.00211
991.505	0.00223
1003.08	0.00244
1014.65	0.00268
1026.23	0.00332
1037.8	0.00426
1049.37	0.00512
1060.95	0.00562
1072.52	0.00532
1084.1	0.00511
1095.67	0.00495
1107.24	0.00481
1118.82	0.00441
1130.39	0.00368
1141.97	0.00307
1153.54	0.00256
1165.11	0.00227
1176.69	0.00205
1188.26	0.002
1199.83	0.00213
1211.41	0.00288
1222.98	0.00403
1234.56	0.00533
1246.13	0.0048
1257.7	0.00308
1269.28	0.00188
1280.85	0.00158
1292.42	0.00163
1304	0.00192
1315.57	0.0024
1327.15	0.00311
1338.72	0.00399
1350.29	0.00575
1361.87	0.01113
1373.44	0.02008
1385.02	0.02217
1396.59	0.01374
1408.16	0.00478
1419.74	0.00246
1431.31	0.00217
1442.88	0.00215
1454.46	0.00198
1466.03	0.0018
1477.61	0.00175
1489.18	0.00179
1500.75	0.00195
1512.33	0.00234
1523.9	0.00342
1535.48	0.00712
1547.05	0.01624
1558.62	0.02161
1570.2	0.02034
1581.77	0.01152
1593.34	0.00513
1604.92	0.00271
1616.49	0.00198
1628.07	0.00178
1639.64	0.00179
1651.21	0.00163
1662.79	0.00143
1674.36	0.00129
1685.93	0.00124
1697.51	0.00122
1709.08	0.00128
1720.66	0.00129
1732.23	0.0013
1743.8	0.00132
1755.38	0.0013
1766.95	0.00135
1778.53	0.00142
1790.1	0.00146
1801.67	0.00143
1813.25	0.00138
1824.82	0.0013
1836.39	0.00128
1847.97	0.00126
1859.54	0.00124
1871.12	0.00123
1882.69	0.0012
1894.26	0.00119
1905.84	0.00118
1917.41	0.00117
1928.99	0.00112
1940.56	0.00115
1952.13	0.00114
1963.71	0.00116
1975.28	0.00114
1986.85	0.00113
1998.43	0.00109
2010	0.00102
2021.58	0.000959
2033.15	0.0008514
2044.72	0.0007143
2056.3	0.0006072
2067.87	0.000618
2079.44	0.0007186
2091.02	0.0007617
2102.59	0.0007888
2114.17	0.0007873
2125.74	0.0007914
2137.31	0.0007767
2148.89	0.0007794
2160.46	0.0008169
2172.04	0.0008228
2183.61	0.0008366
2195.18	0.0008172
2206.76	0.0008055
2218.33	0.0008025
2229.9	0.000816
2241.48	0.0008071
2253.05	0.0008358
2264.63	0.0008133
2276.2	0.0007998
2287.77	0.0007857
2299.35	0.000803
2310.92	0.0007948
2322.5	0.0007927
2334.07	0.000772
2345.64	0.0007684
2357.22	0.0007762
2368.79	0.0007426
2380.36	0.000773
2391.94	0.0007902
2403.51	0.0007951
2415.09	0.0008172
2426.66	0.0008083
2438.23	0.0008143
2449.81	0.0008162
2461.38	0.0008271
2472.96	0.0007916
2484.53	0.0007815
2496.1	0.0007872
2507.68	0.0007785
2519.25	0.0007592
2530.82	0.0007892
2542.4	0.0008106
2553.97	0.0007913
2565.55	0.0007848
2577.12	0.0007752
2588.69	0.0008039
2600.27	0.0008139
2611.84	0.0007749
2623.41	0.000783
2634.99	0.0008015
2646.56	0.0008128
2658.14	0.0007994
2669.71	0.0008189
2681.28	0.000831
2692.86	0.0008563
2704.43	0.0008516
2716.01	0.0008825
2727.58	0.0008849
2739.15	0.0008938
2750.73	0.0008386
2762.3	0.000907
2773.87	0.0009079
2785.45	0.000904
2797.02	0.0008828
2808.6	0.0009348
2820.17	0.0009817
2831.74	0.0009884
2843.32	0.00101
2854.89	0.00101
2866.47	0.0009807
2878.04	0.00102
2889.61	0.00109
2901.19	0.00108
2912.76	0.00109
2924.33	0.00105
2935.91	0.0009893
2947.48	0.001
2959.06	0.00102
2970.63	0.0009642
2982.2	0.0009846
2993.78	0.0009926
3005.35	0.00106
3016.92	0.00109
3028.5	0.0011
3040.07	0.00114
3051.65	0.00112
3063.22	0.00109
3074.79	0.00108
3086.37	0.00109
3097.94	0.00102
3109.52	0.00104
3121.09	0.00104
3132.66	0.00104
3144.24	0.0009887
3155.81	0.000966
3167.38	0.0009666
3178.96	0.0009653
3190.53	0.0009976
3202.11	0.00104
3213.68	0.00114
3225.25	0.00119
3236.83	0.00127
3248.4	0.00138
3259.98	0.00165
3271.55	0.00271
3283.12	0.0059
3294.7	0.00997
3306.27	0.01119
3317.84	0.00814
3329.42	0.00475
3340.99	0.0027
3352.57	0.00171
3364.14	0.00125
3375.71	0.00115
3387.29	0.00118
3398.86	0.00114
3410.43	0.00116
3422.01	0.00126
3433.58	0.0013
3445.16	0.00142
3456.73	0.00173
3468.3	0.00256
3479.88	0.00482
3491.45	0.00928
3503.03	0.01061
3514.6	0.00759
3526.17	0.00264
3537.75	0.00135
3549.32	0.00109
3560.89	0.00103
3572.47	0.0009368
3584.04	0.0008979
3595.62	0.000936
3607.19	0.0009522
3618.76	0.00087
3630.34	0.000922
3641.91	0.0009548
3653.49	0.00088
3665.06	0.0009274
3676.63	0.0009143
3688.21	0.0008834
3699.78	0.0008937
3711.35	0.0008574
3722.93	0.000844
3734.5	0.0008894
3746.08	0.0008529
3757.65	0.0008813
3769.22	0.0008169
3780.8	0.000867
3792.37	0.0008086
3803.94	0.0008454
3815.52	0.0008092
3827.09	0.0008268
3838.67	0.0008592
3850.24	0.0008515
3861.81	0.0008391
3873.39	0.0008015
3884.96	0.0008386
3896.54	0.0008259
3908.11	0.0008092
3919.68	0.0008411
3931.26	0.0008491
3942.83	0.000845
3954.4	0.0008657
3965.98	0.0009015
3977.55	0.0008601
3989.13	0.0008478
4000.7	0.0008655
