Infrared Spectrum: DITHIO OXAMIDE
Formula: C2 H4 N2 S2
CAS: 79-40-3
State: SOLID (MINERAL OIL MULL)
Class: COBLENTZ
Instrument: Not specified, most likely a prism, grating, or hybrid spectrometer.
Sampling: TRANSMISSION
Resolution: 4
Origin: WYANDOTTE CHEMICALS CORP., WYANDOTTE, MICHIGAN, USA
MICROMETERS	TRANSMITTANCE
2.027	0.424
2.0678	0.427
2.10859	0.431
2.14939	0.431
2.19019	0.432
2.23099	0.429
2.27178	0.429
2.31258	0.429
2.35338	0.434
2.39417	0.444
2.43497	0.453
2.47577	0.459
2.51656	0.461
2.55736	0.473
2.59816	0.494
2.63896	0.499
2.67975	0.511
2.72055	0.514
2.76135	0.524
2.80214	0.531
2.84294	0.54
2.88374	0.563
2.92454	0.592
2.96533	0.614
3.00613	0.599
3.04693	0.282
3.08772	0.339
3.12852	0.31
3.16932	0.328
3.21012	0.245
3.25091	0.31
3.29171	0.315
3.33251	0.151
3.3733	0.023
3.4141	0.028
3.4549	0.035
3.49569	0.035
3.53649	0.183
3.57729	0.381
3.61809	0.434
3.65888	0.451
3.69968	0.453
3.74048	0.463
3.78127	0.475
3.82207	0.483
3.86287	0.495
3.90367	0.512
3.94446	0.519
3.98526	0.528
4.02606	0.529
4.06685	0.533
4.10765	0.534
4.14845	0.534
4.18925	0.538
4.23004	0.548
4.27084	0.534
4.31164	0.553
4.35243	0.577
4.39323	0.586
4.43403	0.58
4.47482	0.58
4.51562	0.582
4.55642	0.589
4.59722	0.592
4.63801	0.592
4.67881	0.599
4.71961	0.601
4.7604	0.603
4.8012	0.603
4.842	0.613
4.8828	0.616
4.92359	0.616
4.96439	0.621
5.00519	0.626
5.04598	0.628
5.08678	0.64
5.12758	0.645
5.16837	0.654
5.20917	0.654
5.24997	0.655
5.29077	0.66
5.33156	0.671
5.37236	0.674
5.41316	0.678
5.45395	0.681
5.49475	0.689
5.53555	0.698
5.57635	0.701
5.61714	0.712
5.65794	0.713
5.69874	0.712
5.73953	0.712
5.78033	0.746
5.82113	0.758
5.86193	0.761
5.90272	0.787
5.94352	0.807
5.98432	0.829
6.02511	0.853
6.06591	0.887
6.10671	0.821
6.1475	0.732
6.1883	0.597
6.2291	0.25
6.2699	0.24
6.31069	0.39
6.35149	0.453
6.39229	0.529
6.43308	0.551
6.47388	0.587
6.51468	0.591
6.55548	0.611
6.59627	0.611
6.63707	0.62
6.67787	0.603
6.71866	0.54
6.75946	0.33
6.80026	0.141
6.84105	0.151
6.88185	0.219
6.92265	0.252
6.96345	0.269
7.00424	0.381
7.04504	0.463
7.08584	0.488
7.12663	0.488
7.16743	0.47
7.20823	0.347
7.24903	0.223
7.28982	0.35
7.33062	0.42
7.37142	0.477
7.41221	0.494
7.45301	0.5
7.49381	0.514
7.53461	0.522
7.5754	0.524
7.6162	0.524
7.657	0.528
7.69779	0.534
7.73859	0.548
7.77939	0.565
7.82018	0.575
7.86098	0.584
7.90178	0.594
7.94258	0.603
7.98337	0.609
8.02417	0.621
8.06497	0.633
8.10576	0.654
8.14656	0.669
8.18736	0.691
8.22816	0.698
8.26895	0.599
8.30975	0.482
8.35055	0.473
8.39134	0.529
8.43214	0.574
8.47294	0.591
8.51374	0.603
8.55453	0.604
8.59533	0.608
8.63613	0.621
8.67692	0.635
8.71772	0.654
8.75852	0.671
8.79931	0.679
8.84011	0.683
8.88091	0.691
8.92171	0.695
8.9625	0.705
9.0033	0.708
9.0441	0.706
9.08489	0.703
9.12569	0.701
9.16649	0.7
9.20729	0.698
9.24808	0.7
9.28888	0.705
9.32968	0.708
9.37047	0.712
9.41127	0.713
9.45207	0.724
9.49286	0.729
9.53366	0.729
9.57446	0.729
9.61526	0.729
9.65605	0.734
9.69685	0.732
9.73765	0.734
9.77844	0.741
9.81924	0.742
9.86004	0.744
9.90084	0.758
9.94163	0.759
9.98243	0.763
10.0232	0.77
10.064	0.771
10.1048	0.773
10.1456	0.773
10.1864	0.771
10.2272	0.77
10.268	0.764
10.3088	0.77
10.3496	0.771
10.3904	0.776
10.4312	0.781
10.472	0.78
10.5128	0.788
10.5536	0.793
10.5944	0.792
10.6352	0.795
10.676	0.802
10.7168	0.804
10.7576	0.809
10.7984	0.816
10.8392	0.817
10.88	0.824
10.9208	0.824
10.9616	0.833
11.0024	0.843
11.0432	0.853
11.084	0.858
11.1247	0.865
11.1655	0.867
11.2063	0.867
11.2471	0.872
11.2879	0.873
11.3287	0.894
11.3695	0.906
11.4103	0.918
11.4511	0.928
11.4919	0.933
11.5327	0.933
11.5735	0.936
11.6143	0.935
11.6551	0.923
11.6959	0.899
11.7367	0.848
11.7775	0.776
11.8183	0.659
11.8591	0.568
11.8999	0.5
11.9407	0.448
11.9815	0.446
12.0223	0.473
12.0631	0.511
12.1039	0.553
12.1447	0.592
12.1855	0.628
12.2263	0.652
12.2671	0.672
12.3079	0.691
12.3487	0.701
12.3895	0.717
12.4303	0.724
12.4711	0.732
12.5118	0.737
12.5526	0.742
12.5934	0.746
12.6342	0.749
12.675	0.749
12.7158	0.751
12.7566	0.752
12.7974	0.752
12.8382	0.749
12.879	0.749
12.9198	0.749
12.9606	0.749
13.0014	0.749
13.0422	0.751
13.083	0.751
13.1238	0.751
13.1646	0.751
13.2054	0.749
13.2462	0.742
13.287	0.739
13.3278	0.732
13.3686	0.724
13.4094	0.718
13.4502	0.708
13.491	0.689
13.5318	0.672
13.5726	0.659
13.6134	0.64
13.6542	0.628
13.695	0.611
13.7358	0.591
13.7766	0.572
13.8174	0.55
13.8582	0.528
13.8989	0.516
13.9397	0.512
13.9805	0.516
14.0213	0.521
14.0621	0.521
14.1029	0.522
14.1437	0.521
14.1845	0.519
14.2253	0.521
14.2661	0.529
14.3069	0.531
14.3477	0.546
14.3885	0.557
14.4293	0.568
14.4701	0.582
14.5109	0.589
14.5517	0.601
14.5925	0.611
14.6333	0.616
14.6741	0.626
14.7149	0.63
14.7557	0.633
14.7965	0.638
14.8373	0.637
14.8781	0.633
14.9189	0.632
14.9597	0.62
15.0005	0.596
15.0413	0.575
15.0821	0.551
15.1229	0.546
15.1637	0.546
15.2045	0.533
15.2453	0.517
15.286	0.5
15.3268	0.488
15.3676	0.48
15.4084	0.466
15.4492	0.461
15.49	0.459
15.5308	0.451
15.5716	0.449
15.6124	0.448
15.6532	0.448
15.694	0.448
15.7348	0.448
15.7756	0.446
15.8164	0.446
15.8572	0.446
15.898	0.444
15.9388	0.444
15.9796	0.444
