Infrared Spectrum: 2-Hexyne
Formula: C 6 H 10
CAS: 764-35-2
State: gas
Instrument: HP-GC/MS/IRD
Origin: NIST Mass Spectrometry Data Center
1/CM	ABSORBANCE
550	0.0005289
562	0.0006191
574	0.0008692
586	0.0007585
598	0.0005125
610	0.0003239
622	0.0003198
634	0.0002993
646	0.0002993
658	6.56e-05
670	0.0002378
682	0.0002665
694	0.0003116
706	0.0002706
718	0.0002091
730	0.0003649
742	0.0003895
754	0.0004633
766	0.000451
778	0.0004059
790	0.0004879
802	0.0008241
814	0.0008159
826	0.0005658
838	0.0003936
850	0.0005002
862	0.0005863
874	0.0007421
886	0.0008651
898	0.0007011
910	0.0004879
922	0.0003239
934	0.0002747
946	0.0002706
958	0.0001968
970	0.0002091
982	0.0002665
994	0.0002624
1006	0.0003813
1018	0.0006437
1030	0.0007872
1042	0.0007585
1054	0.0006478
1066	0.000697
1078	0.0007749
1090	0.0006396
1102	0.0004838
1114	0.0003403
1126	0.0002583
1138	0.0002993
1150	0.0002624
1162	0.0002296
1174	0.0003034
1186	0.0003198
1198	0.0003239
1210	0.0005043
1222	0.0007134
1234	0.0008241
1246	0.0008692
1258	0.0010578
1270	0.0019885
1282	0.0023452
1294	0.0018245
1306	0.00164
1318	0.002665
1330	0.0046576
1342	0.0046945
1354	0.003362
1366	0.0029069
1378	0.0039975
1390	0.0037515
1402	0.0025994
1414	0.0025297
1426	0.0033825
1438	0.0043296
1450	0.005371
1462	0.0055186
1474	0.0043296
1486	0.0030996
1498	0.0024723
1510	0.0018204
1522	0.0013735
1534	0.0012382
1546	0.0011562
1558	0.0009471
1570	0.0008651
1582	0.0008077
1594	0.0006601
1606	0.000533
1618	0.0005084
1630	0.0003977
1642	0.0003444
1654	0.0003362
1666	0.0003034
1678	0.0002665
1690	0.0002501
1702	0.0002214
1714	0.0001886
1726	0.0001804
1738	0.0001886
1750	0.0001476
1762	0.0001517
1774	0.0001271
1786	7.79e-05
1798	0.0001025
1810	0.0001189
1822	0.000123
1834	0.0001271
1846	9.02e-05
1858	9.84e-05
1870	6.56e-05
1882	8.2e-05
1894	6.15e-05
1906	5.74e-05
1918	6.56e-05
1930	9.43e-05
1942	9.84e-05
1954	7.79e-05
1966	8.61e-05
1978	6.56e-05
1990	3.69e-05
2002	2.87e-05
2014	5.33e-05
2026	8.61e-05
2038	0.0001927
2050	0.0002665
2062	0.0002747
2074	0.000123
2086	7.79e-05
2098	7.38e-05
2110	5.74e-05
2122	7.79e-05
2134	7.79e-05
2146	5.74e-05
2158	9.84e-05
2170	0.0001148
2182	8.2e-05
2194	7.79e-05
2206	4.51e-05
2218	7.79e-05
2230	9.02e-05
2242	9.02e-05
2254	6.56e-05
2266	2.05e-05
2278	1.23e-05
2290	2.87e-05
2302	4.1e-05
2314	2.87e-05
2326	5.74e-05
2338	8.61e-05
2350	6.56e-05
2362	7.79e-05
2374	9.84e-05
2386	0.000123
2398	0.0001394
2410	0.0001599
2422	0.0001804
2434	0.0001845
2446	0.0002091
2458	0.0001886
2470	0.0001845
2482	0.0001476
2494	0.0001599
2506	0.0001722
2518	0.0002009
2530	0.0002091
2542	0.0001599
2554	0.0002009
2566	0.0001763
2578	0.000164
2590	0.0001927
2602	0.0002009
2614	0.000164
2626	0.0002132
2638	0.0002091
2650	0.0002952
2662	0.0004018
2674	0.0004059
2686	0.0004141
2698	0.0003813
2710	0.0004756
2722	0.0005781
2734	0.000861
2746	0.0012095
2758	0.0012177
2770	0.0009676
2782	0.0010414
2794	0.0011808
2806	0.001476
2818	0.0019967
2830	0.0030381
2842	0.0053013
2854	0.0083107
2866	0.0133414
2878	0.0177202
2890	0.0173758
2902	0.0165066
2914	0.0220129
2926	0.033743
2938	0.0401759
2950	0.0357684
2962	0.0300243
2974	0.0296061
2986	0.0223491
2998	0.010824
3010	0.0062156
3022	0.004059
3034	0.0035629
3046	0.0025994
3058	0.002255
3070	0.0019024
3082	0.0016441
3094	0.0013489
3106	0.0009758
3118	0.0007954
3130	0.0006601
3142	0.0006109
3154	0.0004879
3166	0.0004715
3178	0.0004592
3190	0.0004305
3202	0.0003608
3214	0.0002829
3226	0.0002378
3238	0.0001681
3250	0.0001599
3262	0.0001927
3274	0.0001189
3286	0.0001681
3298	0.0002009
3310	0.0002419
3322	0.0002255
3334	0.0001927
3346	0.0002009
3358	0.0002173
3370	0.0001927
3382	9.43e-05
3394	0.0001025
3406	0.0001435
3418	0.0001312
3430	0.0001435
3442	0.0001681
3454	0.0002583
3466	0.0001763
3478	0.0001107
3490	6.15e-05
3502	0.0001271
3514	8.61e-05
3526	0.0001025
3538	7.38e-05
3550	2.87e-05
3562	7.38e-05
3574	3.69e-05
3586	6.56e-05
3598	9.84e-05
3610	6.97e-05
3622	0.0001435
3634	8.2e-05
3646	0.0001312
3658	0.000123
3670	0.0001025
3682	0.000123
3694	9.02e-05
3706	0.0001599
3718	6.56e-05
3730	0.0001517
3742	0.0001558
3754	0.0001722
3766	0.0001148
3778	0.0001722
3790	0.0001271
3802	0.0001353
3814	0.0001353
3826	0.0001394
3838	0.0001271
