Infrared Spectrum: IMIDAZOLE
Formula: C3 H4 N2
CAS: 288-32-4
State: SOLID (SPLIT MULL)
Class: COBLENTZ III
Instrument: DOW KBr FOREPRISM-GRATING
Instrument parameters: BLAZED AT 3.5, 12.0, 20.0 MICRON AND CHANGED AT 5.0, 7.5, 14.9 MICRON
Sampling: TRANSMISSION
Resolution: 2
Origin: DOW CHEMICAL COMPANY
1/CM	TRANSMITTANCE
384	0.9251
393	0.9218
402	0.9224
411	0.9266
420	0.9305
429	0.934
438	0.9378
447	0.9431
456	0.9467
465	0.9418
474	0.9431
483	0.9418
492	0.9371
501	0.9358
510	0.9433
519	0.9414
528	0.9383
537	0.9406
546	0.9446
555	0.9461
564	0.9448
573	0.943
582	0.9386
591	0.9411
600	0.9168
609	0.9001
618	0.5985
627	0.904
636	0.8989
645	0.8725
654	0.7067
663	0.0564
672	0.9173
681	0.9056
690	0.8818
699	0.8696
708	0.858
717	0.8181
726	0.7569
735	0.6337
744	0.575
753	0.3135
762	0.1182
771	0.6288
780	0.7651
789	0.7908
798	0.7969
807	0.7849
816	0.7554
825	0.5762
834	0.3959
843	0.2023
852	0.7078
861	0.7264
870	0.7012
879	0.6592
888	0.5918
897	0.4396
906	0.6758
915	0.5452
924	0.305
933	0.1267
942	0.2046
951	0.4005
960	0.6403
969	0.7169
978	0.7511
987	0.7634
996	0.7683
1005	0.7671
1014	0.7547
1023	0.7305
1032	0.6856
1041	0.589
1050	0.2837
1059	0.0235
1068	0.5962
1077	0.8344
1086	0.867
1095	0.7887
1104	0.7826
1113	0.8995
1122	0.8907
1131	0.8549
1140	0.7025
1149	0.5275
1158	0.8944
1167	0.892
1176	0.8793
1185	0.8845
1194	0.8798
1203	0.868
1212	0.8574
1221	0.8484
1230	0.818
1239	0.7685
1248	0.654
1257	0.6586
1266	0.1822
1275	0.8492
1284	0.8308
1293	0.8172
1302	0.8017
1311	0.7684
1320	0.4541
1329	0.2374
1338	0.8165
1347	0.8068
1356	0.8309
1365	0.8382
1374	0.8439
1383	0.8378
1392	0.8285
1401	0.8065
1410	0.7864
1419	0.7657
1428	0.719
1437	0.6128
1446	0.4072
1455	0.6278
1464	0.854
1473	0.7624
1482	0.531
1491	0.6304
1500	0.6465
1509	0.9215
1518	0.9075
1527	0.8373
1536	0.6489
1545	0.5051
1554	0.7553
1563	0.7681
1572	0.6862
1581	0.7375
1590	0.8137
1599	0.8586
1608	0.8642
1617	0.8595
1626	0.8486
1635	0.8355
1644	0.8178
1653	0.7882
1662	0.7204
1671	0.6865
1680	0.7551
1689	0.8003
1698	0.8058
1707	0.8015
1716	0.7878
1725	0.7728
1734	0.7632
1743	0.7526
1752	0.7346
1761	0.7219
1770	0.7154
1779	0.7151
1788	0.7108
1797	0.6906
1806	0.661
1815	0.6352
1824	0.6275
1833	0.6347
1842	0.6601
1851	0.6744
1860	0.6718
1869	0.6715
1878	0.6789
1887	0.6885
1896	0.6958
1905	0.7021
1914	0.709
1923	0.7144
1932	0.7189
1941	0.7222
1950	0.7401
1959	0.8477
1968	0.7258
1977	0.7228
1986	0.7171
1995	0.6884
2004	0.719
2013	0.7218
2022	0.7228
2031	0.7525
2040	0.7211
2049	0.7211
2058	0.7198
2067	0.7147
2076	0.7093
2085	0.7043
2094	0.6995
2103	0.6936
2112	0.6878
2121	0.6831
2130	0.6783
2139	0.6734
2148	0.6678
2157	0.6622
2166	0.6568
2175	0.65
2184	0.6431
2193	0.637
2202	0.6312
2211	0.6254
2220	0.6194
2229	0.6124
2238	0.6012
2247	0.5896
2256	0.5787
2265	0.5667
2274	0.5516
2283	0.5336
2292	0.5346
2301	0.5347
2310	0.516
2319	0.4901
2328	0.4673
2337	0.4555
2346	0.4497
2355	0.4284
2364	0.419
2373	0.4242
2382	0.4364
2391	0.436
2400	0.4241
2409	0.4116
2418	0.3968
2427	0.3762
2436	0.3584
2445	0.3382
2454	0.3356
2463	0.3234
2472	0.3223
2481	0.3214
2490	0.3068
2499	0.2941
2508	0.2825
2517	0.2735
2526	0.2659
2535	0.2596
2544	0.256
2553	0.2557
2562	0.2398
2571	0.2225
2580	0.2027
2589	0.1913
2598	0.1874
2607	0.1711
2616	0.1642
2625	0.1885
2634	0.2834
2643	0.2828
2652	0.2666
2661	0.2409
2670	0.2192
2679	0.2009
2688	0.1974
2697	0.1964
2706	0.1962
2715	0.2165
2724	0.2865
2733	0.2875
2742	0.2742
2751	0.2372
2760	0.2145
2769	0.1982
2778	0.1919
2787	0.1872
2796	0.1874
2805	0.2028
2814	0.2013
2823	0.1977
2832	0.2053
2841	0.2254
2850	0.2458
2859	0.2682
2868	0.289
2877	0.3153
2886	0.4243
2895	0.4109
2904	0.2734
2913	0.2485
2922	0.2589
2931	0.2853
2940	0.395
2949	0.4048
2958	0.4207
2967	0.5776
2976	0.5816
2985	0.47
2994	0.4222
3003	0.3204
3012	0.269
3021	0.2626
3030	0.2689
3039	0.2892
3048	0.3264
3057	0.3764
3066	0.5426
3075	0.5915
3084	0.5325
3093	0.4551
3102	0.3778
3111	0.3571
3120	0.384
3129	0.3191
3138	0.3178
3147	0.6022
3156	0.6638
3165	0.6999
3174	0.7305
3183	0.7585
3192	0.7789
3201	0.7974
3210	0.8105
3219	0.8228
3228	0.835
3237	0.8466
3246	0.8578
3255	0.8675
3264	0.874
3273	0.8791
3282	0.8831
3291	0.8896
3300	0.8938
3309	0.8958
3318	0.8962
3327	0.8954
3336	0.894
3345	0.8898
3354	0.8853
3363	0.8807
3372	0.876
3381	0.8703
3390	0.8647
3399	0.8591
3408	0.8538
3417	0.8486
3426	0.8434
3435	0.8373
3444	0.8312
3453	0.8252
3462	0.82
3471	0.8148
3480	0.8096
3489	0.805
3498	0.8006
3507	0.7961
3516	0.7928
3525	0.7893
3534	0.786
3543	0.7825
3552	0.7789
3561	0.7754
3570	0.7718
3579	0.7681
3588	0.7643
3597	0.7605
3606	0.7567
3615	0.753
3624	0.7496
3633	0.7461
3642	0.7425
3651	0.7392
3660	0.7354
3669	0.7312
3678	0.7274
3687	0.7233
3696	0.7193
3705	0.7156
3714	0.7118
3723	0.7083
3732	0.7046
3741	0.7005
3750	0.6965
3759	0.694
3768	0.6925
3777	0.6903
3786	0.6833
