Infrared Spectrum: Methane, trifluoro-
Formula: C H F 3
CAS: 75-46-7
State: gas
Origin: Sadtler Research Labs Under US-EPA Contract
1/CM	ABSORBANCE
450	0
462	0.0167834
474	0.0127922
486	0.014225
498	0.0140203
510	0.0190349
522	0.0130993
534	0.0153507
546	0.0161694
558	0.0133039
570	0.0110525
582	0.0130993
594	0.0134063
606	0.0130993
618	0.014225
630	0.0129969
642	0.0123829
654	0.0138156
666	0.0127922
678	0.0173975
690	0.0196489
702	0.0355113
714	0.0162717
726	0.0182162
738	0.0171928
750	0.0120759
762	0.0121782
774	0.0120759
786	0.0113595
798	0.0117689
810	0.0133039
822	0.0129969
834	0.0114619
846	0.0116665
858	0.0118712
870	0.0117689
882	0.0120759
894	0.0121782
906	0.0117689
918	0.0120759
930	0.0120759
942	0.0115642
954	0.0114619
966	0.0117689
978	0.0122806
990	0.0117689
1002	0.0111548
1014	0.0108478
1026	0.0101315
1038	0.0107455
1050	0.0122806
1062	0.0108478
1074	0.0112572
1086	0.0116665
1098	0.0120759
1110	0.0167834
1122	0.036944
1134	0.158726
1146	0.771322
1158	0.571558
1170	0.117075
1182	0.0557742
1194	0.0283476
1206	0.0303944
1218	0.0157601
1230	0.0169881
1242	0.0129969
1254	0.0116665
1266	0.0110525
1278	0.0103361
1290	0.0109502
1302	0.0105408
1314	0.00961977
1326	0.0107455
1338	0.0137133
1350	0.020877
1362	0.0441077
1374	0.107762
1386	0.0714319
1398	0.0291663
1410	0.015453
1422	0.0118712
1434	0.0108478
1446	0.0104385
1458	0.00992679
1470	0.00961977
1482	0.0102338
1494	0.00992679
1506	0.00982445
1518	0.0103361
1530	0.00982445
1542	0.0102338
1554	0.00982445
1566	0.00982445
1578	0.00921042
1590	0.0094151
1602	0.00972211
1614	0.00982445
1626	0.00992679
1638	0.0105408
1650	0.00982445
1662	0.0104385
1674	0.00961977
1686	0.00992679
1698	0.00951743
1710	0.00961977
1722	0.00951743
1734	0.00931276
1746	0.00951743
1758	0.00910808
1770	0.00818704
1782	0.00828938
1794	0.00859639
1806	0.00900574
1818	0.00910808
1830	0.00921042
1842	0.0106432
1854	0.00982445
1866	0.00910808
1878	0.00890341
1890	0.00839172
1902	0.00869873
1914	0.00880107
1926	0.00880107
1938	0.00859639
1950	0.00869873
1962	0.00849405
1974	0.00828938
1986	0.00828938
1998	0.00828938
2010	0.00818704
2022	0.00798236
2034	0.00839172
2046	0.00839172
2058	0.00828938
2070	0.00818704
2082	0.00818704
2094	0.00788003
2106	0.00777769
2118	0.00818704
2130	0.00798236
2142	0.00798236
2154	0.00767535
2166	0.00788003
2178	0.00777769
2190	0.00767535
2202	0.00777769
2214	0.00798236
2226	0.00839172
2238	0.00859639
2250	0.00900574
2262	0.00992679
2274	0.0118712
2286	0.0114619
2298	0.00869873
2310	0.00839172
2322	0.00961977
2334	0.00972211
2346	0.00951743
2358	0.0094151
2370	0.00931276
2382	0.00767535
2394	0.00736834
2406	0.00736834
2418	0.00706132
2430	0.00706132
2442	0.007266
2454	0.00716366
2466	0.00685665
2478	0.00695898
2490	0.00716366
2502	0.00695898
2514	0.00767535
2526	0.00716366
2538	0.00716366
2550	0.00695898
2562	0.00685665
2574	0.00685665
2586	0.00644729
2598	0.00675431
2610	0.00675431
2622	0.00665197
2634	0.00665197
2646	0.00644729
2658	0.00654963
2670	0.00654963
2682	0.00706132
2694	0.00665197
2706	0.00685665
2718	0.00665197
2730	0.00675431
2742	0.00654963
2754	0.00654963
2766	0.00675431
2778	0.00695898
2790	0.00654963
2802	0.00644729
2814	0.00685665
2826	0.00695898
2838	0.00644729
2850	0.00675431
2862	0.00675431
2874	0.00675431
2886	0.00665197
2898	0.00665197
2910	0.00665197
2922	0.00654963
2934	0.00654963
2946	0.00665197
2958	0.00695898
2970	0.00685665
2982	0.00736834
2994	0.00992679
3006	0.013611
3018	0.014532
3030	0.0180115
3042	0.0210816
3054	0.014225
3066	0.013918
3078	0.00931276
3090	0.00736834
3102	0.00685665
3114	0.00665197
3126	0.00716366
3138	0.00665197
3150	0.00685665
3162	0.007266
3174	0.00675431
3186	0.00675431
3198	0.00695898
3210	0.007266
3222	0.00695898
3234	0.00685665
3246	0.00685665
3258	0.00665197
3270	0.00706132
3282	0.00685665
3294	0.00706132
3306	0.00716366
3318	0.00736834
3330	0.00685665
3342	0.00716366
3354	0.007266
3366	0.00736834
3378	0.00736834
3390	0.00695898
3402	0.00757301
3414	0.007266
3426	0.00716366
3438	0.00695898
3450	0.007266
3462	0.00828938
3474	0.00798236
3486	0.00757301
3498	0.007266
3510	0.00736834
3522	0.00716366
3534	0.00798236
3546	0.00685665
3558	0.00706132
3570	0.00767535
3582	0.00788003
3594	0.00685665
3606	0.00839172
3618	0.00767535
3630	0.00654963
3642	0.00736834
3654	0.00736834
3666	0.00880107
3678	0.00747067
3690	0.00767535
3702	0.00788003
3714	0.00798236
3726	0.00777769
3738	0.00788003
3750	0.00736834
3762	0.00777769
3774	0.00788003
3786	0.00767535
3798	0.00675431
3810	0.00788003
3822	0.00828938
3834	0.00818704
3846	0.00849405
3858	0.00849405
3870	0.00777769
3882	0.00665197
3894	0.00747067
3906	0.00747067
3918	0.00777769
3930	0.00736834
3942	0.00706132
3954	0.00675431
3966	0.00828938
