Infrared Spectrum: 2,2-DICHLOROPROPANE
Formula: C3 H6 Cl2
CAS: 594-20-7
Class: COBLENTZ
Instrument: Not specified, most likely a prism, grating, or hybrid spectrometer.
Sampling: TRANSMISSION
Path length: 0.0025 CM
Resolution: 4
Origin: W.T. BOLLETER
MICROMETERS	TRANSMITTANCE
14.578	0.729
14.648	0.677
14.718	0.631
14.7881	0.54
14.8581	0.455
14.9281	0.35
14.9981	0.268
15.0681	0.153
15.1382	0.09
15.2082	0.042
15.2782	0.035
15.3482	0.032
15.4183	0.033
15.4883	0.04
15.5583	0.058
15.6283	0.115
15.6983	0.204
15.7684	0.327
15.8384	0.459
15.9084	0.553
15.9784	0.633
16.0484	0.695
16.1185	0.74
16.1885	0.763
16.2585	0.782
16.3285	0.802
16.3986	0.823
16.4686	0.839
16.5386	0.852
16.6086	0.857
16.6786	0.862
16.7487	0.864
16.8187	0.862
16.8887	0.859
16.9587	0.852
17.0287	0.838
17.0988	0.823
17.1688	0.802
17.2388	0.779
17.3088	0.75
17.3788	0.709
17.4489	0.661
17.5189	0.615
17.5889	0.548
17.6589	0.478
17.729	0.409
17.799	0.338
17.869	0.274
17.939	0.236
18.009	0.258
18.0791	0.314
18.1491	0.419
18.2191	0.517
18.2891	0.601
18.3591	0.677
18.4292	0.738
18.4992	0.774
18.5692	0.807
18.6392	0.836
18.7093	0.855
18.7793	0.871
18.8493	0.88
18.9193	0.895
18.9893	0.9
19.0594	0.907
19.1294	0.911
19.1994	0.914
19.2694	0.918
19.3394	0.921
19.4095	0.923
19.4795	0.925
19.5495	0.925
19.6195	0.925
19.6895	0.927
19.7596	0.927
19.8296	0.927
19.8996	0.928
19.9696	0.93
20.0397	0.932
20.1097	0.934
20.1797	0.934
20.2497	0.935
20.3197	0.935
20.3898	0.937
20.4598	0.939
20.5298	0.941
20.5998	0.939
20.6698	0.941
20.7399	0.941
20.8099	0.941
20.8799	0.941
20.9499	0.943
21.02	0.939
21.09	0.937
21.16	0.937
21.23	0.937
21.3	0.943
21.3701	0.941
21.4401	0.941
21.5101	0.941
21.5801	0.941
21.6501	0.939
21.7202	0.937
21.7902	0.935
21.8602	0.937
21.9302	0.939
22.0002	0.937
22.0703	0.937
22.1403	0.937
22.2103	0.937
22.2803	0.939
22.3504	0.937
22.4204	0.939
22.4904	0.939
22.5604	0.937
22.6304	0.935
22.7005	0.937
22.7705	0.939
22.8405	0.937
22.9105	0.937
22.9805	0.937
23.0506	0.937
23.1206	0.937
23.1906	0.934
23.2606	0.935
23.3307	0.934
23.4007	0.935
23.4707	0.935
23.5407	0.934
23.6107	0.934
23.6808	0.928
23.7508	0.925
23.8208	0.919
23.8908	0.925
23.9608	0.932
24.0309	0.935
24.1009	0.934
24.1709	0.928
24.2409	0.927
24.311	0.928
24.381	0.925
24.451	0.921
24.521	0.921
24.591	0.918
24.6611	0.912
24.7311	0.909
24.8011	0.902
24.8711	0.896
24.9411	0.891
25.0112	0.88
25.0812	0.87
25.1512	0.859
25.2212	0.848
25.2912	0.832
25.3613	0.804
25.4313	0.784
25.5013	0.75
25.5713	0.725
25.6414	0.692
25.7114	0.676
25.7814	0.672
25.8514	0.679
25.9214	0.701
25.9915	0.731
26.0615	0.752
26.1315	0.775
26.2015	0.798
26.2715	0.811
26.3416	0.818
26.4116	0.829
26.4816	0.829
26.5516	0.827
26.6217	0.822
26.6917	0.816
26.7617	0.809
26.8317	0.8
26.9017	0.788
26.9718	0.761
27.0418	0.724
27.1118	0.69
27.1818	0.651
27.2518	0.613
27.3219	0.572
27.3919	0.535
27.4619	0.507
27.5319	0.485
27.6019	0.466
27.672	0.457
27.742	0.455
27.812	0.462
27.882	0.489
27.9521	0.533
28.0221	0.576
28.0921	0.624
28.1621	0.688
28.2321	0.725
28.3022	0.768
28.3722	0.79
28.4422	0.82
28.5122	0.841
28.5822	0.855
28.6523	0.868
28.7223	0.879
28.7923	0.882
28.8623	0.879
28.9324	0.88
29.0024	0.884
29.0724	0.882
29.1424	0.882
29.2124	0.889
29.2825	0.895
29.3525	0.889
29.4225	0.896
29.4925	0.9
29.5625	0.9
29.6326	0.9
29.7026	0.898
29.7726	0.896
29.8426	0.895
29.9126	0.896
29.9827	0.9
30.0527	0.902
30.1227	0.902
30.1927	0.9
30.2628	0.895
30.3328	0.889
30.4028	0.886
30.4728	0.88
30.5428	0.875
30.6129	0.887
30.6829	0.887
30.7529	0.886
30.8229	0.88
30.8929	0.879
30.963	0.88
31.033	0.889
31.103	0.895
31.173	0.886
31.2431	0.882
31.3131	0.879
31.3831	0.879
31.4531	0.873
31.5231	0.868
31.5932	0.864
31.6632	0.861
31.7332	0.857
31.8032	0.859
31.8732	0.846
31.9433	0.859
32.0133	0.857
32.0833	0.854
32.1533	0.85
32.2233	0.85
32.2934	0.848
32.3634	0.845
32.4334	0.839
32.5034	0.838
32.5735	0.832
32.6435	0.83
32.7135	0.829
32.7835	0.825
32.8535	0.825
32.9236	0.823
32.9936	0.814
33.0636	0.806
33.1336	0.8
33.2036	0.8
33.2737	0.798
33.3437	0.791
33.4137	0.79
33.4837	0.784
33.5538	0.781
33.6238	0.775
33.6938	0.775
33.7638	0.768
33.8338	0.768
33.9039	0.766
33.9739	0.765
34.0439	0.763
34.1139	0.763
34.1839	0.763
34.254	0.765
34.324	0.754
34.394	0.743
34.464	0.74
34.534	0.734
34.6041	0.729
34.6741	0.725
34.7441	0.722
34.8141	0.718
34.8842	0.717
34.9542	0.715
35.0242	0.711
35.0942	0.711
35.1642	0.709
35.2343	0.706
35.3043	0.706
35.3743	0.706
35.4443	0.702
35.5143	0.706
35.5844	0.706
35.6544	0.706
35.7244	0.704
35.7944	0.702
35.8645	0.699
35.9345	0.699
36.0045	0.695
36.0745	0.692
36.1445	0.688
36.2146	0.683
36.2846	0.677
36.3546	0.67
36.4246	0.667
36.4946	0.66
36.5647	0.654
36.6347	0.651
36.7047	0.651
36.7747	0.645
36.8447	0.637
36.9148	0.631
36.9848	0.628
37.0548	0.624
37.1248	0.62
37.1949	0.62
37.2649	0.619
37.3349	0.615
37.4049	0.615
37.4749	0.617
37.545	0.619
37.615	0.62
37.685	0.624
37.755	0.626
37.825	0.626
37.8951	0.626
37.9651	0.629
