Infrared Spectrum: PROPANE, 2,2-DICHLORO-
Formula: C3 H6 Cl2
CAS: 594-20-7
State: SOLUTION (10% IN CCl4 FOR 3800-1333, AND 10% IN CS2 FOR 1333-400 CM^-^1)
Class: COBLENTZ III
Instrument: DOW KBr FOREPRISM-GRATING
Instrument parameters: BLAZED AT 3.5, 12.0, 20.0 MICRON, CHANGED AT 5.0, 7.5, 14.9 MICRON
Sampling: TRANSMISSION
Path length: 0.011, 0.011 CM
Resolution: 4
Origin: DOW CHEMICAL COMPANY
1/CM	TRANSMITTANCE
383.478	0.25
392.174	0.263
400.869	0.314
409.565	0.538
418.261	0.804
426.956	0.857
435.652	0.893
444.348	0.919
453.043	0.934
461.739	0.946
470.435	0.961
479.13	0.97
487.826	0.974
496.522	0.975
505.217	0.976
513.913	0.972
522.609	0.971
531.304	0.967
540	0.94
548.696	0.87
557.391	0.635
566.087	0.559
574.783	0.836
583.478	0.94
592.174	0.967
600.87	0.97
609.565	0.952
618.261	0.896
626.957	0.863
635.653	0.699
644.348	0.299
653.044	0.002
661.74	0.111
670.435	0.497
679.131	0.776
687.827	0.893
696.522	0.938
705.218	0.97
713.914	0.98
722.609	0.976
731.305	0.963
740.001	1.001
748.696	1.009
757.392	1.008
766.088	1.008
774.783	1.005
783.479	1
792.175	0.994
800.87	0.994
809.566	0.991
818.262	0.993
826.957	0.991
835.653	0.978
844.349	0.934
853.044	0.847
861.74	0.827
870.436	0.853
879.131	0.887
887.827	0.918
896.523	0.921
905.218	0.858
913.914	0.522
922.61	0.823
931.305	0.915
940.001	0.949
948.697	0.955
957.392	0.957
966.088	0.957
974.784	0.955
983.479	0.951
992.175	0.948
1000.87	0.94
1009.57	0.938
1018.26	0.93
1026.96	0.933
1035.65	0.93
1044.35	0.926
1053.04	0.919
1061.74	0.914
1070.44	0.892
1079.13	0.832
1087.83	0.738
1096.52	0.651
1105.22	0.1819
1113.91	0.005
1122.61	0.431
1131.31	0.644
1140	0.648
1148.7	0.4459
1157.39	0.062
1166.09	0.5071
1174.78	0.744
1183.48	0.703
1192.18	0.606
1200.87	0.817
1209.57	0.817
1218.26	0.831
1226.96	0.873
1235.65	0.892
1244.35	0.904
1253.05	0.911
1261.74	0.914
1270.44	0.914
1279.13	0.918
1287.83	0.914
1296.52	0.907
1305.22	0.906
1313.91	0.911
1322.61	0.91
1331.31	0.903
1340	0.893
1348.7	0.881
1357.39	0.85
1366.09	0.7449
1374.78	0.1381
1383.48	0.643
1392.18	0.5413
1400.87	0.831
1409.57	0.846
1418.26	0.838
1426.96	0.797
1435.65	0.5479
1444.35	0.5549
1453.05	0.6339
1461.74	0.6252
1470.44	0.834
1479.13	0.842
1487.83	0.85
1496.52	0.834
1505.22	0.794
1513.92	0.741
1522.61	0.68
1531.31	0.646
1540	0.561
1548.7	0.487
1557.39	0.5
1566.09	0.576
1574.79	0.629
1583.48	0.648
1592.18	0.7081
1600.87	0.795
1609.57	0.861
1618.26	0.892
1626.96	0.912
1635.65	0.922
1644.35	0.931
1653.05	0.937
1661.74	0.938
1670.44	0.938
1679.13	0.938
1687.83	0.934
1696.52	0.933
1705.22	0.931
1713.92	0.931
1722.61	0.934
1731.31	0.937
1740	0.942
1748.7	0.948
1757.39	0.952
1766.09	0.955
1774.79	0.956
1783.48	0.956
1792.18	0.957
1800.87	0.955
1809.57	0.956
1818.26	0.956
1826.96	0.956
1835.66	0.957
1844.35	0.956
1853.05	0.96
1861.74	0.961
1870.44	0.963
1879.13	0.965
1887.83	0.968
1896.53	0.968
1905.22	0.968
1913.92	0.968
1922.61	0.968
1931.31	0.97
1940	0.967
1948.7	0.964
1957.39	0.964
1966.09	0.964
1974.79	0.964
1983.48	0.964
1992.18	0.96
2000.87	0.965
2009.57	0.955
2018.26	0.9525
2026.96	0.954
2035.66	0.952
2044.35	0.953
2053.05	0.955
2061.74	0.955
2070.44	0.955
2079.13	0.956
2087.83	0.955
2096.53	0.955
2105.22	0.9565
2113.92	0.9595
2122.61	0.9595
2131.31	0.961
2140	0.962
2148.7	0.963
2157.4	0.963
2166.09	0.963
2174.79	0.963
2183.48	0.963
2192.18	0.963
2200.87	0.962
2209.57	0.961
2218.26	0.961
2226.96	0.961
2235.66	0.9605
2244.35	0.957
2253.05	0.957
2261.74	0.9515
2270.44	0.9425
2279.13	0.926
2287.83	0.92
2296.53	0.932
2305.22	0.938
2313.92	0.9505
2322.61	0.9625
2331.31	0.963
2340	0.9645
2348.7	0.965
2357.4	0.9635
2366.09	0.9635
2374.79	0.964
2383.48	0.964
2392.18	0.965
2400.87	0.967
2409.57	0.967
2418.27	0.967
2426.96	0.967
2435.66	0.967
2444.35	0.968
2453.05	0.968
2461.74	0.968
2470.44	0.968
2479.14	0.968
2487.83	0.968
2496.53	0.968
2505.22	0.968
2513.92	0.967
2522.61	0.964
2531.31	0.9595
2540	0.956
2548.7	0.956
2557.4	0.9505
2566.09	0.949
2574.79	0.95
2583.48	0.9595
2592.18	0.964
2600.87	0.964
2609.57	0.9635
2618.27	0.963
2626.96	0.963
2635.66	0.9645
2644.35	0.965
2653.05	0.966
2661.74	0.965
2670.44	0.965
2679.14	0.965
2687.83	0.964
2696.53	0.9635
2705.22	0.961
2713.92	0.9605
2722.61	0.956
2731.31	0.956
2740.01	0.96
2748.7	0.96
2757.4	0.959
2766.09	0.96
2774.79	0.9575
2783.48	0.9565
2792.18	0.955
2800.88	0.9455
2809.57	0.945
2818.27	0.946
2826.96	0.942
2835.66	0.934
2844.35	0.923
2853.05	0.8859
2861.74	0.8515
2870.44	0.8955
2879.14	0.8945
2887.83	0.897
2896.53	0.893
2905.22	0.8765
2913.92	0.864
2922.61	0.8094
2931.31	0.675
2940.01	0.5665
2948.7	0.7985
2957.4	0.861
2966.09	0.852
2974.79	0.7904
2983.48	0.6236
2992.18	0.428
3000.88	0.5655
3009.57	0.5431
3018.27	0.8145
3026.96	0.9275
3035.66	0.9505
3044.35	0.955
3053.05	0.9555
3061.75	0.9565
3070.44	0.9565
3079.14	0.957
3087.83	0.957
3096.53	0.957
3105.22	0.957
3113.92	0.957
3122.61	0.957
3131.31	0.959
3140.01	0.958
3148.7	0.957
3157.4	0.9565
3166.09	0.955
3174.79	0.955
3183.48	0.955
3192.18	0.954
3200.88	0.954
3209.57	0.9515
3218.27	0.9455
3226.96	0.944
3235.66	0.942
3244.35	0.94
3253.05	0.94
3261.75	0.937
3270.44	0.9375
3279.14	0.9405
3287.83	0.942
3296.53	0.944
3305.22	0.9445
3313.92	0.944
3322.62	0.944
3331.31	0.942
3340.01	0.941
3348.7	0.939
3357.4	0.938
3366.09	0.938
3374.79	0.941
3383.49	0.9455
3392.18	0.948
3400.88	0.95
3409.57	0.951
3418.27	0.953
3426.96	0.953
3435.66	0.9525
3444.35	0.954
3453.05	0.955
3461.75	0.955
3470.44	0.956
3479.14	0.956
3487.83	0.956
3496.53	0.956
3505.22	0.956
3513.92	0.956
3522.62	0.956
3531.31	0.9555
3540.01	0.9555
3548.7	0.956
3557.4	0.9555
3566.09	0.959
3574.79	0.96
3583.49	0.9495
3592.18	0.9615
3600.88	0.964
3609.57	0.961
3618.27	0.97
3626.96	0.971
3635.66	0.971
3644.36	0.972
3653.05	0.974
3661.75	0.972
3670.44	0.972
3679.14	0.972
3687.83	0.971
3696.53	0.971
3705.23	0.974
3713.92	0.9755
3722.62	0.976
3731.31	0.9755
3740.01	0.975
3748.7	0.976
3757.4	0.975
3766.09	0.976
3774.79	0.975
3783.49	0.976
3792.18	0.975
