Infrared Spectrum: 2-Propanethiol
Formula: C 3 H 8 S
CAS: 75-33-2
State: gas
Instrument: HP-GC/MS/IRD
Origin: NIST Mass Spectrometry Data Center
1/CM	ABSORBANCE
550	0.0003928
562	0.000272
574	0.0001312
586	0.0003128
598	0.000268
610	0.0004296
622	0.0005352
634	0.0004088
646	0.0003416
658	0.0002312
670	0.00016
682	0.0001824
694	0.0002008
706	9.68e-05
718	0.0001448
730	9.04e-05
742	0.000184
754	0.0001624
766	0.000128
778	0.0001632
790	0.0001808
802	0.0001832
814	7.2e-06
826	0.0001464
838	0.0001464
850	0.0001944
862	0.0003992
874	0.0003808
886	0.0004104
898	0.0003128
910	0.0002728
922	0.0002752
934	0.000176
946	0.000244
958	0.0001688
970	0.0001648
982	0.0001352
994	4.88e-05
1006	0.0001328
1018	0.0001232
1030	0.0001688
1042	0.0003688
1054	0.0003208
1066	0.000576
1078	0.0008152
1090	0.0008808
1102	0.000616
1114	0.0003912
1126	0.00058
1138	0.0007848
1150	0.0008328
1162	0.0009496
1174	0.0009072
1186	0.0006216
1198	0.000516
1210	0.0006744
1222	0.0010008
1234	0.001564
1246	0.0020936
1258	0.0021712
1270	0.0018208
1282	0.0011976
1294	0.000664
1306	0.0004328
1318	0.0003424
1330	0.000348
1342	0.0004104
1354	0.0007312
1366	0.0010344
1378	0.0012824
1390	0.0013856
1402	0.0007376
1414	0.0005648
1426	0.0007608
1438	0.0010688
1450	0.0013592
1462	0.0013448
1474	0.0010648
1486	0.0007816
1498	0.0004744
1510	0.0002672
1522	0.0001792
1534	0.0001416
1546	0.0001144
1558	0.0001144
1570	0.0001136
1582	0.0001088
1594	6.96e-05
1606	7.44e-05
1618	9.2e-05
1630	9.92e-05
1642	0.0001128
1654	0.0001312
1666	0.0001304
1678	0.0001656
1690	0.0001904
1702	0.0001872
1714	0.0001704
1726	0.0001808
1738	0.0001672
1750	0.0001496
1762	0.0001688
1774	0.0001424
1786	0.000108
1798	0.0001288
1810	0.0001096
1822	9.92e-05
1834	0.0001096
1846	0.0001272
1858	0.00012
1870	7.84e-05
1882	0.0001016
1894	9.28e-05
1906	8.96e-05
1918	0.0001096
1930	8.24e-05
1942	7.84e-05
1954	0.0001128
1966	2.24e-05
1978	8.08e-05
1990	7.6e-05
2002	8.88e-05
2014	5.76e-05
2026	7.68e-05
2038	6.32e-05
2050	9.2e-05
2062	7.44e-05
2074	2.96e-05
2086	4.64e-05
2098	4.08e-05
2110	5.28e-05
2122	2.48e-05
2134	6.08e-05
2146	5.92e-05
2158	4.16e-05
2170	5.76e-05
2182	3.28e-05
2194	1.84e-05
2206	2.96e-05
2218	4.96e-05
2230	1.52e-05
2242	4.16e-05
2254	6.64e-05
2266	8.64e-05
2278	3.44e-05
2290	5.04e-05
2302	5.84e-05
2314	6.16e-05
2326	6.24e-05
2338	3.68e-05
2350	5.92e-05
2362	2.56e-05
2374	2.32e-05
2386	1.92e-05
2398	3.36e-05
2410	2.56e-05
2422	5.84e-05
2434	2.88e-05
2446	3.12e-05
2458	1.92e-05
2470	3.76e-05
2482	7.28e-05
2494	8.32e-05
2506	0.000104
2518	5.44e-05
2530	5.44e-05
2542	7.2e-05
2554	0.0001128
2566	0.000156
2578	0.0002488
2590	0.0002512
2602	0.0002584
2614	0.0001648
2626	0.0001056
2638	9.52e-05
2650	4.56e-05
2662	5.68e-05
2674	7.2e-05
2686	7.2e-05
2698	4.88e-05
2710	9.84e-05
2722	0.0001576
2734	0.0002008
2746	0.0002272
2758	0.0001864
2770	0.00012
2782	0.0001216
2794	0.0001384
2806	0.0001784
2818	0.0001832
2830	0.0003112
2842	0.0004048
2854	0.0008712
2866	0.0016848
2878	0.0019808
2890	0.0023064
2902	0.002504
2914	0.0030168
2926	0.0040048
2938	0.0046448
2950	0.0058832
2962	0.0073528
2974	0.0071792
2986	0.0062552
2998	0.0031864
3010	0.0012672
3022	0.0004744
3034	0.0002592
3046	9.68e-05
3058	0.000164
3070	0.0001248
3082	0.0002192
3094	0.000104
3106	0.0001192
3118	0.0001128
3130	2.56e-05
3142	0.0001312
3154	0.0001152
3166	0.0001608
3178	0.0001016
3190	0.0001584
3202	0.000204
3214	0.000152
3226	0.00016
3238	0.0001336
3250	0.0001264
3262	6.4e-05
3274	0.0001856
3286	0.0001152
3298	0.0001472
3310	4.24e-05
3322	6.08e-05
3334	0.00012
3346	5.12e-05
3358	0.0001384
3370	6.64e-05
3382	9.2e-05
3394	0.0001728
3406	0.0001576
3418	3.68e-05
3430	0.0001512
3442	0.00012
3454	0.0001152
3466	0.0001056
3478	2.32e-05
3490	7.68e-05
3502	4.4e-05
3514	6.72e-05
3526	0.0001592
3538	0.0001152
3550	8e-06
3562	8.72e-05
3574	0.0001056
3586	0.0001352
3598	0.0001368
3610	8.24e-05
3622	0.0001248
3634	0.000144
3646	0.000148
3658	0.0001296
3670	0.000132
3682	4.4e-05
3694	0.000132
3706	0.000148
3718	0.0001008
3730	6.08e-05
3742	9.28e-05
3754	0.0001736
3766	0.00016
3778	0.0001008
3790	0.00016
3802	9.84e-05
3814	9.92e-05
3826	7.36e-05
3838	7.76e-05
