Infrared Spectrum: Ethanol, 2-(dimethylamino)-
Formula: C 4 H 11 N O
CAS: 108-01-0
State: gas
Origin: Sadtler Research Labs Under US-EPA Contract
1/CM	ABSORBANCE
450	0.0252098
462	0.0336381
474	0.0112127
486	0.0109869
498	0.0101592
510	0.0155021
522	0.012191
534	0.013696
546	0.0256613
558	0.0276179
570	0.0228769
582	0.0100086
594	0.00594499
606	0.00293487
618	0.00707378
630	0.00233284
642	0.00421417
654	0.00978289
666	0.00406366
678	0.00639651
690	0.006246
702	0.00586973
714	0.00850359
726	0.0125673
738	0.018437
750	0.0424427
762	0.081198
774	0.110998
786	0.0827783
798	0.0427437
810	0.0148248
822	0.0139218
834	0.0185122
846	0.0278436
858	0.0534296
870	0.0821763
882	0.082402
894	0.0543327
906	0.0283704
918	0.025887
930	0.0482372
942	0.0748767
954	0.0782631
966	0.0489897
978	0.0424427
990	0.0542574
1002	0.088347
1014	0.19197
1026	0.501411
1038	0.669676
1050	0.557023
1062	0.388004
1074	0.419535
1086	0.43865
1098	0.267524
1110	0.13094
1122	0.0638898
1134	0.055311
1146	0.0728449
1158	0.0924107
1170	0.102419
1182	0.105881
1194	0.102495
1206	0.13395
1218	0.208376
1230	0.211988
1242	0.136659
1254	0.107537
1266	0.17692
1278	0.219287
1290	0.155849
1302	0.0892501
1314	0.0657711
1326	0.0701358
1338	0.0754788
1350	0.111374
1362	0.150732
1374	0.143583
1386	0.130865
1398	0.208526
1410	0.23953
1422	0.166309
1434	0.116266
1446	0.192271
1458	0.293411
1470	0.268503
1482	0.177146
1494	0.0921849
1506	0.0378523
1518	0.0195658
1530	0.0124167
1542	0.00887985
1554	0.00594499
1566	0.0036874
1578	0.00481619
1590	0.00331113
1602	0.00301012
1614	0.00346164
1626	0.00195658
1638	0.00301012
1650	0.000978289
1662	0.0012793
1674	0.00218234
1686	0.00413891
1698	0.00428942
1710	0.00421417
1722	0.00361214
1734	0.0025586
1746	0.00150506
1758	0.00150506
1770	0.00075253
1782	0.000827783
1794	0.00165557
1806	0.00248335
1818	0.0025586
1830	0.00150506
1842	0.000827783
1854	0.00075253
1866	0.000301012
1878	0.0011288
1890	0.00158031
1902	0.00218234
1914	0.00285961
1926	0.00398841
1938	0.00451518
1950	0.00504195
1962	0.00421417
1974	0.00233284
1986	0.00210708
1998	0.00173082
2010	0.000677277
2022	0.0012793
2034	0.00173082
2046	0.00316063
2058	0.00391316
2070	0.00293487
2082	0.00421417
2094	0.00579448
2106	0.00594499
2118	0.00534296
2130	0.00398841
2142	0.00308537
2154	0.00301012
2166	0.00233284
2178	0.00173082
2190	0.00203183
2202	0.00203183
2214	0.00248335
2226	0.00285961
2238	0.00203183
2250	0.000978289
2262	0.00120405
2274	0.000978289
2286	0.00105354
2298	0.00263386
2310	0.00459043
2322	0.00662226
2334	0.00428942
2346	0.000301012
2358	0.00887985
2370	0.000301012
2382	0.000301012
2394	0.000301012
2406	0.00158031
2418	0.00263386
2430	0.00248335
2442	0.00180607
2454	0.000903036
2466	0.000602024
2478	0.00173082
2490	0.00481619
2502	0.00692328
2514	0.00707378
2526	0.0051172
2538	0.0049667
2550	0.00556872
2562	0.00586973
2574	0.0051172
2586	0.00466569
2598	0.00541822
2610	0.0075253
2622	0.0103849
2634	0.0149001
2646	0.018437
2658	0.0234037
2670	0.0278436
2682	0.0344659
2694	0.0465064
2706	0.0629115
2718	0.0827783
2730	0.103849
2742	0.129435
2754	0.189412
2766	0.379802
2778	0.642209
2790	0.745456
2802	0.641682
2814	0.564021
2826	0.568988
2838	0.485382
2850	0.35828
2862	0.381232
2874	0.461978
2886	0.455883
2898	0.396884
2910	0.362193
2922	0.395906
2934	0.51759
2946	0.704895
2958	0.748993
2970	0.679083
2982	0.541445
2994	0.342552
3006	0.114008
3018	0.03868
3030	0.0209203
3042	0.0150506
3054	0.0126425
3066	0.012492
3078	0.0142228
3090	0.011589
3102	0.0106107
3114	0.00842834
3126	0.00978289
3138	0.00699853
3150	0.00692328
3162	0.00699853
3174	0.00737479
3186	0.00918087
3198	0.00918087
3210	0.00918087
3222	0.00602024
3234	0.00391316
3246	0.00233284
3258	0.0012793
3270	0.00218234
3282	0.00541822
3294	0.00617075
3306	0.00413891
3318	0.00331113
3330	0.00120405
3342	0.00188133
3354	0.0036874
3366	0.00316063
3378	0.0024081
3390	0.00684802
3402	0.0227264
3414	0.0410129
3426	0.0366482
3438	0.0236294
3450	0.0171577
3462	0.0139971
3474	0.012793
3486	0.0104602
3498	0.00970764
3510	0.0141476
3522	0.0333371
3534	0.118599
3546	0.171125
3558	0.143507
3570	0.0913571
3582	0.0597509
3594	0.0423674
3606	0.030628
3618	0.0194905
3630	0.0173082
3642	0.019039
3654	0.030628
3666	0.0414644
3678	0.0431952
3690	0.024382
3702	0.00963238
3714	0.0099334
3726	0.00790157
3738	0.00466569
3750	0.00225759
3762	0.00353689
3774	0.000827783
3786	0.000451518
3798	0.00301012
3810	0.00263386
3822	0.000602024
3834	0.00278436
3846	0.00158031
3858	0.00632125
3870	0.00263386
3882	0.00504195
3894	0.00406366
3906	0.00075253
3918	0.000301012
3930	0.00308537
3942	0.000301012
3954	0.000978289
3966	0.000150506
