Infrared Spectrum: n-PROPANOL
Formula: C3 H8 O
CAS: 71-23-8
State: GAS (SATURATED)
Class: COBLENTZ
Instrument: DOW KBr FOREPRISM-GRATING
Instrument parameters: GRATING: BLAZED AT 3.5, 12.0, 20.0 MICRON, CHANGED AT 5.0, 7.5, 14.9 MICRON
Sampling: TRANSMISSION
Path length: 12.5 CM CELL
Resolution: 2
Origin: DOW CHEMICAL COMPANY
1/CM	TRANSMITTANCE
454.259	0.72
463.092	0.722
471.925	0.722
480.758	0.726
489.59	0.736
498.423	0.756
507.256	0.772
516.089	0.776
524.922	0.774
533.755	0.774
542.587	0.774
551.42	0.776
560.253	0.776
569.086	0.774
577.919	0.776
586.752	0.782
595.585	0.784
604.417	0.788
613.25	0.79
622.083	0.792
630.916	0.798
639.749	0.802
648.582	0.804
657.415	0.806
666.247	0.806
675.08	0.812
683.913	0.814
692.746	0.816
701.579	0.824
710.412	0.82
719.244	0.82
728.077	0.82
736.91	0.822
745.743	0.814
754.576	0.808
763.409	0.81
772.242	0.814
781.074	0.82
789.907	0.828
798.74	0.828
807.573	0.828
816.406	0.824
825.239	0.814
834.071	0.796
842.904	0.782
851.737	0.766
860.57	0.752
869.403	0.734
878.236	0.722
887.069	0.712
895.901	0.702
904.734	0.708
913.567	0.726
922.4	0.736
931.233	0.738
940.066	0.704
948.898	0.603
957.731	0.3941
966.564	0.323
975.397	0.356
984.23	0.295
993.063	0.422
1001.9	0.503
1010.73	0.414
1019.56	0.412
1028.39	0.334
1037.23	0.317
1046.06	0.1622
1054.89	0.128
1063.73	0.084
1072.56	0.136
1081.39	0.2689
1090.22	0.346
1099.06	0.442
1107.89	0.543
1116.72	0.615
1125.56	0.694
1134.39	0.728
1143.22	0.74
1152.05	0.75
1160.89	0.758
1169.72	0.754
1178.55	0.74
1187.39	0.718
1196.22	0.663
1205.05	0.595
1213.88	0.555
1222.72	0.531
1231.55	0.555
1240.38	0.595
1249.22	0.657
1258.05	0.7
1266.88	0.704
1275.71	0.696
1284.55	0.69
1293.38	0.688
1302.21	0.69
1311.05	0.694
1319.88	0.684
1328.71	0.674
1337.54	0.655
1346.38	0.647
1355.21	0.625
1364.04	0.597
1372.88	0.569
1381.71	0.48
1390.54	0.46
1399.37	0.484
1408.21	0.525
1417.04	0.688
1425.87	0.716
1434.71	0.702
1443.54	0.639
1452.37	0.589
1461.2	0.565
1470.04	0.557
1478.87	0.569
1487.7	0.645
1496.54	0.702
1505.37	0.774
1514.2	0.826
1523.03	0.843
1531.87	0.863
1540.7	0.863
1549.53	0.875
1558.36	0.867
1567.2	0.877
1576.03	0.879
1584.86	0.887
1593.7	0.887
1602.53	0.887
1611.36	0.889
1620.19	0.895
1629.03	0.891
1637.86	0.883
1646.69	0.881
1655.53	0.883
1664.36	0.879
1673.19	0.877
1682.02	0.875
1690.86	0.875
1699.69	0.871
1708.52	0.883
1717.36	0.883
1726.19	0.885
1735.02	0.885
1743.85	0.887
1752.69	0.889
1761.52	0.895
1770.35	0.891
1779.19	0.897
1788.02	0.895
1796.85	0.901
1805.68	0.899
1814.52	0.901
1823.35	0.899
1832.18	0.901
1841.02	0.897
1849.85	0.901
1858.68	0.901
1867.51	0.901
1876.35	0.905
1885.18	0.905
1894.01	0.905
1902.85	0.901
1911.68	0.893
1920.51	0.893
1929.34	0.893
1938.18	0.891
1947.01	0.893
1955.84	0.905
1964.68	0.905
1973.51	0.907
1982.34	0.909
1991.17	0.909
2000.01	0.903
2008.84	0.9041
2017.67	0.905
2026.51	0.903
2035.34	0.901
2044.17	0.899
2053	0.897
2061.84	0.897
2070.67	0.8974
2079.5	0.9025
2088.34	0.907
2097.17	0.911
2106	0.9137
2114.83	0.915
2123.67	0.9158
2132.5	0.9188
2141.33	0.919
2150.17	0.919
2159	0.919
2167.83	0.919
2176.66	0.919
2185.5	0.919
2194.33	0.919
2203.16	0.919
2212	0.919
2220.83	0.9214
2229.66	0.925
2238.49	0.925
2247.33	0.9246
2256.16	0.925
2264.99	0.9267
2273.83	0.929
2282.66	0.9308
2291.49	0.931
2300.32	0.931
2309.16	0.933
2317.99	0.941
2326.82	0.941
2335.66	0.941
2344.49	0.939
2353.32	0.939
2362.15	0.937
2370.99	0.937
2379.82	0.935
2388.65	0.933
2397.49	0.931
2406.32	0.927
2415.15	0.9286
2423.98	0.929
2432.82	0.929
2441.65	0.9338
2450.48	0.937
2459.32	0.9399
2468.15	0.945
2476.98	0.945
2485.81	0.945
2494.65	0.947
2503.48	0.9488
2512.31	0.9483
2521.15	0.949
2529.98	0.949
2538.81	0.9506
2547.64	0.949
2556.48	0.947
2565.31	0.945
2574.14	0.947
2582.98	0.947
2591.81	0.945
2600.64	0.943
2609.47	0.943
2618.31	0.941
2627.14	0.939
2635.97	0.937
2644.81	0.937
2653.64	0.9308
2662.47	0.925
2671.3	0.9187
2680.14	0.915
2688.97	0.9126
2697.8	0.909
2706.64	0.906
2715.47	0.8974
2724.3	0.8798
2733.13	0.8616
2741.97	0.847
2750.8	0.8392
2759.63	0.8283
2768.47	0.824
2777.3	0.811
2786.13	0.806
2794.96	0.8009
2803.8	0.7897
2812.63	0.7736
2821.46	0.7501
2830.3	0.6895
2839.13	0.6302
2847.96	0.4831
2856.79	0.3504
2865.63	0.2314
2874.46	0.1297
2883.29	0.114
2892.13	0.1214
2900.96	0.126
2909.79	0.1232
2918.62	0.1121
2927.46	0.0875
2936.29	0.064
2945.12	0.062
2953.95	0.0538
2962.79	0.0449
2971.62	0.0532
2980.45	0.0773
2989.29	0.1381
2998.12	0.3232
3006.95	0.6394
3015.78	0.7926
3024.62	0.8903
3033.45	0.9366
3042.28	0.9496
3051.12	0.951
3059.95	0.9558
3068.78	0.957
3077.61	0.959
3086.45	0.9571
3095.28	0.956
3104.11	0.955
3112.95	0.957
3121.78	0.961
3130.61	0.967
3139.44	0.969
3148.28	0.969
3157.11	0.969
3165.94	0.969
3174.78	0.967
3183.61	0.967
3192.44	0.9696
3201.27	0.9727
3210.11	0.9765
3218.94	0.983
3227.77	0.983
3236.61	0.9869
3245.44	0.987
3254.27	0.989
3263.1	0.991
3271.94	0.991
3280.77	0.993
3289.6	0.993
3298.44	0.995
3307.27	0.997
3316.1	1
3324.93	1
3333.77	1
3342.6	1
3351.43	1.002
3360.27	1.0027
3369.1	1.004
3377.93	1.004
3386.76	1.002
3395.6	1
3404.43	0.997
3413.26	0.995
3422.1	0.995
3430.93	0.995
3439.76	0.997
3448.59	0.997
3457.43	0.9967
3466.26	0.9936
3475.09	0.993
3483.93	0.9945
3492.76	1
3501.59	1.002
3510.42	1.0027
3519.26	1.004
3528.09	1.006
3536.92	1.0042
3545.76	1.002
3554.59	0.9951
3563.42	0.992
3572.25	1
3581.09	1.002
3589.92	1.0016
3598.75	0.9938
3607.59	0.9785
3616.42	0.9464
3625.25	0.9079
3634.08	0.8304
3642.92	0.7349
3651.75	0.6326
3660.58	0.5594
3669.42	0.5807
3678.25	0.6738
3687.08	0.7875
3695.91	0.9503
3704.75	0.9865
3713.58	1.0029
3722.41	1.004
3731.25	1.006
3740.08	1.0081
3748.91	1.012
3757.74	1.012
3766.58	1.01
3775.41	1.008
3784.24	1.008
