Infrared Spectrum: 1-Propanol
Formula: C 3 H 8 O
CAS: 71-23-8
State: gas
Origin: Sadtler Research Labs Under US-EPA Contract
1/CM	ABSORBANCE
450	0.0307279
462	0.0410619
474	0.0348432
486	0.0319167
498	0.0206682
510	0.0148152
522	0.00594438
534	0.00887084
546	0.00292646
558	0.00695035
570	0.00640164
582	0.0022863
594	0.00557857
606	0.00512131
618	0.00576148
630	0.00118888
642	0.00594438
654	0.00393244
666	0.000182904
678	0.00374953
690	0.00411534
702	0.00201194
714	0.0022863
726	0.00384098
738	0.00384098
750	0.00823068
762	0.00740761
774	0.00813923
786	0.00585293
798	0.00521276
810	0.00594438
822	0.00759052
834	0.0148152
846	0.0242348
858	0.0329227
870	0.0420679
882	0.0466405
894	0.0541396
906	0.0534994
918	0.0528593
930	0.0635591
942	0.106359
954	0.218936
966	0.274265
978	0.297219
990	0.282587
1002	0.252499
1014	0.245732
1026	0.312309
1038	0.401566
1050	0.49759
1062	0.573038
1074	0.457077
1086	0.289994
1098	0.198542
1110	0.135166
1122	0.0866965
1134	0.0588036
1146	0.0482867
1158	0.0476465
1170	0.0514875
1182	0.0634677
1194	0.0853247
1206	0.111297
1218	0.12721
1230	0.128399
1242	0.114589
1254	0.0925494
1266	0.0833128
1278	0.0800205
1290	0.0773684
1302	0.0757223
1314	0.0753564
1326	0.0810265
1338	0.0903546
1350	0.0973049
1362	0.113675
1374	0.137361
1386	0.162693
1398	0.157115
1410	0.134069
1422	0.0791974
1434	0.0784658
1446	0.100872
1458	0.110931
1470	0.113766
1482	0.0996827
1494	0.0723385
1506	0.0410619
1518	0.0230459
1530	0.014358
1542	0.00813923
1554	0.00631019
1566	0.0068589
1578	0.00347518
1590	0.006676
1602	0.00695035
1614	0.00411534
1626	0.00603583
1638	0.0022863
1650	0.00621874
1662	0.00539567
1674	0.00393244
1686	0.000548712
1698	0.000640164
1710	0.00329227
1722	0.00310937
1734	0.00329227
1746	0.00466405
1758	0.00658454
1770	0.00621874
1782	0.0047555
1794	0.00374953
1806	0.00338372
1818	0.00429824
1830	0.00384098
1842	0.00292646
1854	0.00329227
1866	0.0024692
1878	0.00274356
1890	0.00274356
1902	0.00301792
1914	0.00484696
1926	0.00621874
1938	0.00603583
1950	0.00603583
1962	0.00411534
1974	0.00310937
1986	0.0024692
1998	0.00265211
2010	0.00329227
2022	0.00448115
2034	0.00484696
2046	0.00658454
2058	0.00676745
2070	0.00484696
2082	0.00420679
2094	0.00301792
2106	0.0022863
2118	0.0021034
2130	0.000823068
2142	0.000731616
2154	0.00173759
2166	0.00173759
2178	0.00201194
2190	0.00301792
2202	0.00356663
2214	0.00265211
2226	0.0022863
2238	0.0024692
2250	0.00256066
2262	0.00256066
2274	0.00201194
2286	0.00292646
2298	0.00448115
2310	0.00539567
2322	0.00411534
2334	0.00320082
2346	0.00310937
2358	0.00301792
2370	0.00420679
2382	0.00493841
2394	0.00365808
2406	0.00448115
2418	0.00429824
2430	0.00429824
2442	0.00356663
2454	0.00274356
2466	0.0021034
2478	0.00100597
2490	0.00100597
2502	0.000731616
2514	0.00155468
2526	0.00192049
2538	0.00237775
2550	0.00338372
2562	0.0043897
2574	0.00347518
2586	0.00374953
2598	0.00502986
2610	0.00557857
2622	0.00621874
2634	0.00740761
2646	0.00859649
2658	0.010517
2670	0.0117059
2682	0.0139007
2694	0.0168272
2706	0.0194793
2718	0.0246006
2730	0.0310937
2742	0.0385927
2754	0.0438055
2766	0.0480123
2778	0.0509388
2790	0.0551456
2802	0.0597182
2814	0.0711497
2826	0.0963904
2838	0.146049
2850	0.22799
2862	0.338738
2874	0.493475
2886	0.582549
2898	0.620227
2910	0.644005
2922	0.67894
2934	0.766551
2946	0.835688
2958	0.851235
2970	0.91452
2982	0.654888
2994	0.487714
3006	0.236129
3018	0.101237
3030	0.0466405
3042	0.02771
3054	0.021857
3066	0.0209425
3078	0.0201194
3090	0.0204852
3102	0.0195707
3114	0.0186562
3126	0.0155468
3138	0.0128033
3150	0.0114315
3162	0.0107913
3174	0.0112486
3186	0.0110657
3198	0.00941956
3210	0.00768197
3222	0.00576148
3234	0.00621874
3246	0.00493841
3258	0.00420679
3270	0.0045726
3282	0.00393244
3294	0.00219485
3306	0.00182904
3318	0.000823068
3330	0.00091452
3342	0.00155468
3354	0.00100597
3366	0.00256066
3378	0.00192049
3390	0.00283501
3402	0.00356663
3414	0.00411534
3426	0.00557857
3438	0.00557857
3450	0.00594438
3462	0.00658454
3474	0.00786487
3486	0.00777342
3498	0.006676
3510	0.00612728
3522	0.00557857
3534	0.00493841
3546	0.0068589
3558	0.00567002
3570	0.006676
3582	0.00676745
3594	0.00713326
3606	0.00969391
3618	0.0192964
3630	0.0287159
3642	0.0593523
3654	0.112669
3666	0.142574
3678	0.143214
3690	0.106816
3702	0.0514875
3714	0.0193878
3726	0.0138093
3738	0.00621874
3750	0.0068589
3762	0.00832213
3774	0.00877939
3786	0.00960246
3798	0.00777342
3810	0.0121631
3822	0.00877939
3834	0.0089623
3846	0.0110657
3858	0.00951101
3870	0.00768197
3882	0.00987682
3894	0.00877939
3906	0.00631019
3918	0.00640164
3930	0.00777342
3942	0.00585293
3954	0.0045726
3966	0.00640164
