Infrared Spectrum: n-PROPANOL
Formula: C3 H8 O
CAS: 71-23-8
State: SOLUTION (10% IN CCl4 FOR 3800-1330, 10% IN CS2 FOR 1330-400 CM^-^1)
Class: COBLENTZ III
Instrument: BECKMAN IR-9 (GRATING)
Instrument parameters: ORDER CHANGES AT 670, 1200, 2000 CM^-^1
Sampling: TRANSMISSION
Path length: 0.010, 0.010 CM
Resolution: 4
Origin: DOW CHEMICAL COMPANY
1/CM	TRANSMITTANCE
399.335	0.36
408.404	0.321
417.473	0.366
426.542	0.548
435.611	0.66
444.68	0.755
453.749	0.794
462.817	0.786
471.886	0.756
480.955	0.777
490.024	0.803
499.093	0.859
508.162	0.889
517.231	0.898
526.3	0.888
535.369	0.874
544.438	0.858
553.507	0.84
562.576	0.821
571.645	0.804
580.713	0.787
589.782	0.773
598.851	0.752
607.92	0.732
616.989	0.718
626.058	0.7
635.127	0.683
644.196	0.66
653.265	0.64
662.334	0.643
671.403	0.661
680.472	0.68
689.54	0.694
698.609	0.707
707.678	0.725
716.747	0.748
725.816	0.773
734.885	0.794
743.954	0.813
753.023	0.782
762.092	0.813
771.161	0.847
780.23	0.899
789.299	0.937
798.368	0.963
807.436	0.99
816.505	1.012
825.574	1.029
834.643	1.028
843.712	0.988
852.781	0.828
861.85	0.719
870.919	0.865
879.988	0.858
889.057	0.676
898.126	0.85
907.195	0.837
916.264	0.92
925.332	1.004
934.401	1.016
943.47	0.987
952.539	0.851
961.608	0.251
970.677	0.049
979.746	0.5121
988.815	0.766
997.884	0.806
1006.95	0.547
1016.02	0.164
1025.09	0.538
1034.16	0.738
1043.23	0.509
1052.3	0.093
1061.37	0.055
1070.44	0.083
1079.5	0.415
1088.57	0.521
1097.64	0.384
1106.71	0.5141
1115.78	0.797
1124.85	0.83
1133.92	0.859
1142.99	0.922
1152.06	0.977
1161.12	1.007
1170.19	1.021
1179.26	1.021
1188.33	1.011
1197.4	1
1206.47	0.956
1215.54	0.889
1224.61	0.811
1233.68	0.69
1242.74	0.738
1251.81	0.835
1260.88	0.851
1269.95	0.823
1279.02	0.816
1288.09	0.793
1297.16	0.777
1306.23	0.786
1315.3	0.756
1324.37	0.684
1333.43	0.554
1342.5	0.523
1351.57	0.521
1360.64	0.55
1369.71	0.536
1378.78	0.469
1387.85	0.387
1396.92	0.451
1405.99	0.472
1415.05	0.473
1424.12	0.473
1433.19	0.473
1442.26	0.445
1451.33	0.36
1460.4	0.248
1469.47	0.299
1478.54	0.418
1487.61	0.603
1496.67	0.695
1505.74	0.708
1514.81	0.69
1523.88	0.674
1532.95	0.635
1542.02	0.575
1551.09	0.507
1560.16	0.548
1569.23	0.629
1578.29	0.667
1587.36	0.691
1596.43	0.759
1605.5	0.833
1614.57	0.878
1623.64	0.898
1632.71	0.909
1641.78	0.92
1650.85	0.932
1659.92	0.937
1668.98	0.94
1678.05	0.946
1687.12	0.953
1696.19	0.96
1705.26	0.963
1714.33	0.967
1723.4	0.971
1732.47	0.974
1741.54	0.974
1750.6	0.978
1759.67	0.981
1768.74	0.981
1777.81	0.983
1786.88	0.985
1795.95	0.984
1805.02	0.984
1814.09	0.983
1823.16	0.981
1832.22	0.977
1841.29	0.974
1850.36	0.978
1859.43	0.977
1868.5	0.977
1877.57	0.98
1886.64	0.983
1895.71	0.983
1904.78	0.981
1913.84	0.98
1922.91	0.971
1931.98	0.958
1941.05	0.956
1950.12	0.967
1959.19	0.978
1968.26	0.983
1977.33	0.983
1986.4	0.983
1995.47	0.978
2004.53	0.9715
2013.6	0.9775
2022.67	0.9775
2031.74	0.9715
2040.81	0.968
2049.88	0.97
2058.95	0.97
2068.02	0.9665
2077.09	0.966
2086.15	0.9775
2095.22	0.9845
2104.29	0.9859
2113.36	0.983
2122.43	0.984
2131.5	0.9845
2140.57	0.985
2149.64	0.9875
2158.71	0.987
2167.77	0.984
2176.84	0.9819
2185.91	0.981
2194.98	0.978
2204.05	0.9727
2213.12	0.971
2222.19	0.974
2231.26	0.975
2240.33	0.971
2249.4	0.9706
2258.46	0.97
2267.53	0.968
2276.6	0.9618
2285.67	0.96
2294.74	0.954
2303.81	0.953
2312.88	0.951
2321.95	0.951
2331.02	0.951
2340.08	0.95
2349.15	0.949
2358.22	0.949
2367.29	0.951
2376.36	0.953
2385.43	0.954
2394.5	0.953
2403.57	0.951
2412.64	0.95
2421.7	0.95
2430.77	0.947
2439.84	0.946
2448.91	0.9447
2457.98	0.943
2467.05	0.936
2476.12	0.933
2485.19	0.932
2494.26	0.9263
2503.32	0.917
2512.39	0.9107
2521.46	0.9023
2530.53	0.8936
2539.6	0.895
2548.67	0.893
2557.74	0.8913
2566.81	0.889
2575.88	0.884
2584.95	0.8813
2594.01	0.881
2603.08	0.881
2612.15	0.881
2621.22	0.881
2630.29	0.8783
2639.36	0.871
2648.43	0.862
2657.5	0.85
2666.57	0.8316
2675.63	0.8138
2684.7	0.8124
2693.77	0.816
2702.84	0.8078
2711.91	0.7948
2720.98	0.7662
2730.05	0.7465
2739.12	0.7313
2748.19	0.722
2757.25	0.724
2766.32	0.7172
2775.39	0.7105
2784.46	0.6907
2793.53	0.6717
2802.6	0.6378
2811.67	0.5937
2820.74	0.5523
2829.81	0.49
2838.87	0.4366
2847.94	0.3395
2857.01	0.2289
2866.08	0.1487
2875.15	0.0729
2884.22	0.0434
2893.29	0.105
2902.36	0.1348
2911.43	0.1404
2920.5	0.104
2929.56	0.061
2938.63	0.0362
2947.7	0.0321
2956.77	0.053
2965.84	0.028
2974.91	0.0206
2983.98	0.1071
2993.05	0.3488
3002.12	0.504
3011.18	0.5961
3020.25	0.649
3029.32	0.6805
3038.39	0.7045
3047.46	0.7148
3056.53	0.7189
3065.6	0.7172
3074.67	0.7111
3083.74	0.6984
3092.8	0.6857
3101.87	0.665
3110.94	0.6399
3120.01	0.6211
3129.08	0.5924
3138.15	0.5624
3147.22	0.5344
3156.29	0.4926
3165.36	0.4593
3174.43	0.4221
3183.49	0.3881
3192.56	0.3432
3201.63	0.309
3210.7	0.273
3219.77	0.238
3228.84	0.2104
3237.91	0.1755
3246.98	0.152
3256.05	0.1152
3265.11	0.0933
3274.18	0.0822
3283.25	0.0705
3292.32	0.0601
3301.39	0.0561
3310.46	0.052
3319.53	0.049
3328.6	0.046
3337.67	0.045
3346.73	0.043
3355.8	0.045
3364.87	0.046
3373.94	0.049
3383.01	0.052
3392.08	0.0569
3401.15	0.0649
3410.22	0.0759
3419.29	0.0819
3428.35	0.0989
3437.42	0.1129
3446.49	0.14
3455.56	0.161
3464.63	0.1879
3473.7	0.2199
3482.77	0.2469
3491.84	0.28
3500.91	0.3179
3509.98	0.353
3519.04	0.404
3528.11	0.4551
3537.18	0.5061
3546.25	0.5641
3555.32	0.6221
3564.39	0.6712
3573.46	0.7152
3582.53	0.7561
3591.6	0.7823
3600.66	0.8042
3609.73	0.8129
3618.8	0.7786
3627.87	0.6946
3636.94	0.649
3646.01	0.6836
3655.08	0.8082
3664.15	0.8765
3673.22	0.8981
3682.28	0.9032
3691.35	0.9163
3700.42	0.9401
3709.49	0.9471
3718.56	0.9531
3727.63	0.957
3736.7	0.958
3745.77	0.9601
3754.84	0.963
3763.9	0.963
3772.97	0.9631
3782.04	0.966
3791.11	0.966
