Infrared Spectrum: n-PROPANOL
Formula: C3 H8 O
CAS: 71-23-8
State: GAS (SATURATED)
Class: COBLENTZ
Instrument: DOW KBr FOREPRISM-GRATING
Instrument parameters: BLAZED AT 3.5, 12.0, 20.0 MICRON, CHANGED AT 5.0, 7.5, 14.9 MICRON
Sampling: TRANSMISSION
Path length: 12.5 CM CELL
Resolution: 4
Origin: DOW CHEMICAL COMPANY
1/CM	TRANSMITTANCE
455.305	0.714
464.203	0.71
473.101	0.711
481.999	0.717
490.897	0.728
499.795	0.744
508.693	0.76
517.591	0.764
526.489	0.762
535.387	0.762
544.285	0.762
553.183	0.764
562.081	0.762
570.98	0.761
579.878	0.765
588.776	0.769
597.674	0.772
606.572	0.775
615.47	0.779
624.368	0.782
633.266	0.786
642.164	0.79
651.062	0.793
659.96	0.794
668.858	0.796
677.756	0.8
686.654	0.801
695.552	0.805
704.45	0.805
713.348	0.805
722.246	0.807
731.144	0.807
740.042	0.807
748.94	0.797
757.838	0.796
766.736	0.8
775.634	0.803
784.532	0.811
793.431	0.816
802.329	0.816
811.227	0.814
820.125	0.807
829.023	0.793
837.921	0.778
846.819	0.76
855.717	0.742
864.615	0.725
873.513	0.714
882.411	0.705
891.309	0.69
900.207	0.694
909.105	0.714
918.003	0.722
926.901	0.729
935.799	0.701
944.697	0.617
953.595	0.427
962.493	0.323
971.391	0.352
980.289	0.281
989.187	0.402
998.085	0.499
1006.98	0.417
1015.88	0.416
1024.78	0.339
1033.68	0.317
1042.58	0.201
1051.47	0.13
1060.37	0.085
1069.27	0.123
1078.17	0.257
1087.07	0.331
1095.96	0.427
1104.86	0.532
1113.76	0.603
1122.66	0.68
1131.56	0.715
1140.45	0.726
1149.35	0.737
1158.25	0.744
1167.15	0.747
1176.05	0.732
1184.94	0.714
1193.84	0.661
1202.74	0.6
1211.64	0.552
1220.54	0.527
1229.43	0.535
1238.33	0.574
1247.23	0.631
1256.13	0.676
1265.03	0.693
1273.92	0.689
1282.82	0.685
1291.72	0.678
1300.62	0.676
1309.52	0.683
1318.41	0.678
1327.31	0.668
1336.21	0.653
1345.11	0.643
1354.01	0.626
1362.91	0.596
1371.8	0.574
1380.7	0.503
1389.6	0.457
1398.5	0.477
1407.4	0.489
1416.29	0.6331
1425.19	0.705
1434.09	0.7
1442.99	0.647
1451.89	0.592
1460.78	0.568
1469.68	0.545
1478.58	0.563
1487.48	0.632
1496.38	0.692
1505.27	0.76
1514.17	0.815
1523.07	0.834
1531.97	0.851
1540.87	0.85
1549.76	0.864
1558.66	0.854
1567.56	0.865
1576.46	0.864
1585.36	0.873
1594.25	0.873
1603.15	0.875
1612.05	0.876
1620.95	0.883
1629.85	0.879
1638.74	0.872
1647.64	0.866
1656.54	0.866
1665.44	0.866
1674.34	0.859
1683.23	0.858
1692.13	0.861
1701.03	0.859
1709.93	0.869
1718.83	0.868
1727.72	0.871
1736.62	0.869
1745.52	0.872
1754.42	0.876
1763.32	0.879
1772.21	0.877
1781.11	0.882
1790.01	0.879
1798.91	0.884
1807.81	0.883
1816.71	0.884
1825.6	0.883
1834.5	0.884
1843.4	0.883
1852.3	0.887
1861.2	0.886
1870.09	0.887
1878.99	0.89
1887.89	0.889
1896.79	0.89
1905.69	0.886
1914.58	0.88
1923.48	0.879
1932.38	0.877
1941.28	0.877
1950.18	0.88
1959.07	0.89
1967.97	0.891
1976.87	0.891
1985.77	0.893
1994.67	0.894
2003.56	0.889
2012.46	0.89
2021.36	0.89
2030.26	0.89
2039.16	0.8869
2048.05	0.8839
2056.95	0.884
2065.85	0.882
2074.75	0.8861
2083.65	0.89
2092.54	0.8933
2101.44	0.9
2110.34	0.9
2119.24	0.9
2128.14	0.902
2137.03	0.904
2145.93	0.904
2154.83	0.904
2163.73	0.904
2172.63	0.905
2181.52	0.904
2190.42	0.905
2199.32	0.905
2208.22	0.9043
2217.12	0.907
2226.01	0.908
2234.91	0.909
2243.81	0.911
2252.71	0.9103
2261.61	0.911
2270.51	0.912
2279.4	0.914
2288.3	0.915
2297.2	0.918
2306.1	0.919
2315	0.9224
2323.89	0.9265
2332.79	0.926
2341.69	0.924
2350.59	0.923
2359.49	0.925
2368.38	0.921
2377.28	0.92
2386.18	0.919
2395.08	0.9169
2403.98	0.915
2412.87	0.9128
2421.77	0.9132
2430.67	0.914
2439.57	0.916
2448.47	0.919
2457.36	0.9213
2466.26	0.925
2475.16	0.9283
2484.06	0.932
2492.96	0.9314
2501.85	0.932
2510.75	0.933
2519.65	0.934
2528.55	0.9355
2537.45	0.936
2546.34	0.936
2555.24	0.934
2564.14	0.932
2573.04	0.9328
2581.94	0.932
2590.83	0.932
2599.73	0.9303
2608.63	0.93
2617.53	0.926
2626.43	0.926
2635.32	0.923
2644.22	0.9221
2653.12	0.9191
2662.02	0.9152
2670.92	0.9082
2679.82	0.902
2688.71	0.9
2697.61	0.898
2706.51	0.894
2715.41	0.89
2724.31	0.872
2733.2	0.8549
2742.1	0.8399
2751	0.8319
2759.9	0.8209
2768.8	0.8138
2777.69	0.8037
2786.59	0.7958
2795.49	0.7888
2804.39	0.7817
2813.29	0.7706
2822.18	0.7489
2831.08	0.7
2839.98	0.639
2848.88	0.5271
2857.78	0.3961
2866.67	0.2585
2875.57	0.14
2884.47	0.119
2893.37	0.1223
2902.27	0.1273
2911.16	0.126
2920.06	0.1157
2928.96	0.0912
2937.86	0.066
2946.76	0.067
2955.65	0.0623
2964.55	0.0406
2973.45	0.0593
2982.35	0.0903
2991.25	0.1317
3000.14	0.2725
3009.04	0.5744
3017.94	0.7456
3026.84	0.8733
3035.74	0.923
3044.63	0.9335
3053.53	0.938
3062.43	0.942
3071.33	0.944
3080.23	0.944
3089.12	0.944
3098.02	0.941
3106.92	0.941
3115.82	0.943
3124.72	0.9476
3133.62	0.954
3142.51	0.9562
3151.41	0.957
3160.31	0.9544
3169.21	0.955
3178.11	0.9527
3187	0.952
3195.9	0.9577
3204.8	0.961
3213.7	0.966
3222.6	0.969
3231.49	0.97
3240.39	0.97
3249.29	0.973
3258.19	0.9758
3267.09	0.976
3275.98	0.977
3284.88	0.9786
3293.78	0.9798
3302.68	0.9808
3311.58	0.983
3320.47	0.983
3329.37	0.984
3338.27	0.984
3347.17	0.984
3356.07	0.986
3364.96	0.987
3373.86	0.987
3382.76	0.986
3391.66	0.984
3400.56	0.981
3409.45	0.98
3418.35	0.979
3427.25	0.98
3436.15	0.981
3445.05	0.983
3453.94	0.981
3462.84	0.979
3471.74	0.977
3480.64	0.979
3489.54	0.981
3498.43	0.986
3507.33	0.988
3516.23	0.988
3525.13	0.99
3534.03	0.988
3542.92	0.986
3551.82	0.9808
3560.72	0.983
3569.62	0.987
3578.52	0.987
3587.42	0.9838
3596.31	0.9723
3605.21	0.9617
3614.11	0.9351
3623.01	0.8856
3631.91	0.8093
3640.8	0.7054
3649.7	0.6132
3658.6	0.552
3667.5	0.5862
3676.4	0.6787
3685.29	0.8031
3694.19	0.9386
3703.09	0.981
3711.99	0.988
3720.89	0.99
3729.78	0.991
3738.68	0.994
3747.58	0.995
3756.48	0.9945
3765.38	0.9935
3774.27	0.991
3783.17	0.9905
3792.07	0.99
