Infrared Spectrum: Carbonic acid, cyclicvinylene ester
Formula: C3 H2 O3
CAS: 872-36-6
State: LIQUID (NEAT)
Class: COBLENTZ III
Instrument: BAIRD (GRATING)
Instrument parameters: NaCl PRISM
Path length: 0.003 CM
Resolution: 2
Origin: WYANDOTTE CHEMICALS CORP.
1/CM	TRANSMITTANCE
625	0.7315
634	0.7544
643	0.7695
652	0.7756
661	0.789
670	0.7548
679	0.7205
688	0.6017
697	0.3284
706	0.0897
715	0.0606
724	0.0588
733	0.101
742	0.0727
751	0.4133
760	0.5859
769	0.6209
778	0.4175
787	0.6324
796	0.7828
805	0.8005
814	0.7923
823	0.7899
832	0.8176
841	0.8405
850	0.8541
859	0.8553
868	0.8475
877	0.8159
886	0.653
895	0.2819
904	0.2488
913	0.3827
922	0.8146
931	0.8829
940	0.904
949	0.9142
958	0.9179
967	0.9167
976	0.9074
985	0.9063
994	0.906
1003	0.8989
1012	0.8852
1021	0.8572
1030	0.7822
1039	0.6717
1048	0.7004
1057	0.6631
1066	0.4576
1075	0.2853
1084	0.0274
1093	0.0191
1102	0.0205
1111	0.0217
1120	0.0232
1129	0.1647
1138	0.3676
1147	0.3825
1156	0.115
1165	0.0238
1174	0.0242
1183	0.2375
1192	0.5889
1201	0.7693
1210	0.8307
1219	0.8672
1228	0.8951
1237	0.9156
1246	0.9234
1255	0.927
1264	0.9285
1273	0.9275
1282	0.9238
1291	0.9256
1300	0.9319
1309	0.9315
1318	0.9195
1327	0.8806
1336	0.7874
1345	0.231
1354	0.2013
1363	0.2565
1372	0.7566
1381	0.8661
1390	0.9015
1399	0.9173
1408	0.9195
1417	0.9129
1426	0.8785
1435	0.8588
1444	0.8576
1453	0.864
1462	0.8852
1471	0.897
1480	0.9111
1489	0.9176
1498	0.9162
1507	0.8974
1516	0.8749
1525	0.8244
1534	0.7694
1543	0.7232
1552	0.6969
1561	0.6673
1570	0.6326
1579	0.5056
1588	0.5324
1597	0.7549
1606	0.8391
1615	0.8407
1624	0.8284
1633	0.7914
1642	0.7908
1651	0.7825
1660	0.7787
1669	0.8416
1678	0.8719
1687	0.8863
1696	0.9007
1705	0.8981
1714	0.8863
1723	0.8802
1732	0.8502
1741	0.8093
1750	0.754
1759	0.5927
1768	0.2514
1777	0.0265
1786	0.0218
1795	0.0209
1804	0.0208
1813	0.0211
1822	0.0216
1831	0.0227
1840	0.0243
1849	0.0274
1858	0.0865
1867	0.2453
1876	0.4025
1885	0.5583
1894	0.6371
1903	0.6487
1912	0.5773
1921	0.5349
1930	0.7802
1939	0.8561
1948	0.8559
1957	0.7334
1966	0.603
1975	0.4738
1984	0.4127
1993	0.5506
2002	0.6939
2011	0.8358
2020	0.9328
2029	0.8859
2038	0.8299
2047	0.7743
2056	0.7261
2065	0.7902
2074	0.8601
2083	0.9017
2092	0.8319
2101	0.7433
2110	0.6554
2119	0.5694
2128	0.6283
2137	0.7917
2146	0.9109
2155	0.8969
2164	0.8628
2173	0.845
2182	0.8568
2191	0.8729
2200	0.8802
2209	0.8886
2218	0.9233
2227	0.9534
2236	0.9606
2245	0.9661
2254	0.9698
2263	0.9725
2272	0.9742
2281	0.9733
2290	0.9698
2299	0.9657
2308	0.9603
2317	0.9545
2326	0.9486
2335	0.9431
2344	0.9383
2353	0.9371
2362	0.9403
2371	0.9546
2380	0.9657
2389	0.9629
2398	0.9496
2407	0.9339
2416	0.9111
2425	0.8979
2434	0.9064
2443	0.9215
2452	0.9423
2461	0.9579
2470	0.968
2479	0.9708
2488	0.9705
2497	0.9685
2506	0.9633
2515	0.9533
2524	0.9461
2533	0.9481
2542	0.9553
2551	0.9538
2560	0.95
2569	0.9501
2578	0.9563
2587	0.9625
2596	0.9686
2605	0.9747
2614	0.9779
2623	0.9778
2632	0.977
2641	0.975
2650	0.9711
2659	0.9652
2668	0.9623
2677	0.9586
2686	0.9529
2695	0.9481
2704	0.9492
2713	0.9514
2722	0.9512
2731	0.9411
2740	0.9251
2749	0.9129
2758	0.9149
2767	0.9349
2776	0.9553
2785	0.9671
2794	0.9701
2803	0.9706
2812	0.9706
2821	0.9705
2830	0.9698
2839	0.969
2848	0.9683
2857	0.9679
2866	0.9675
2875	0.9674
2884	0.9672
2893	0.967
2902	0.9666
2911	0.9662
2920	0.9658
2929	0.9654
2938	0.9617
2947	0.9435
2956	0.9248
2965	0.9067
2974	0.9054
2983	0.9064
2992	0.915
3001	0.9319
3010	0.947
3019	0.9559
3028	0.9564
3037	0.9568
3046	0.9572
3055	0.9572
3064	0.9534
3073	0.9365
3082	0.9197
3091	0.9047
3100	0.9077
3109	0.9152
3118	0.9106
3127	0.7065
3136	0.4405
3145	0.1775
3154	0.0881
3163	0.0943
3172	0.1812
3181	0.2813
3190	0.3808
3199	0.4797
3208	0.5782
3217	0.676
3226	0.7451
3235	0.7439
3244	0.7315
3253	0.7219
3262	0.7555
3271	0.831
3280	0.8553
3289	0.876
3298	0.8896
3307	0.9024
3316	0.9145
3325	0.9267
3334	0.9397
3343	0.9468
3352	0.9533
3361	0.9571
3370	0.9606
3379	0.9621
3388	0.9625
3397	0.9624
3406	0.9623
3415	0.9622
3424	0.9617
3433	0.9611
3442	0.9603
3451	0.959
3460	0.9577
3469	0.9564
3478	0.9544
3487	0.9518
3496	0.9492
3505	0.9466
3514	0.9433
3523	0.9388
3532	0.9342
3541	0.9281
3550	0.9215
3559	0.9145
3568	0.9054
3577	0.8963
3586	0.8856
3595	0.8734
3604	0.8622
3613	0.852
3622	0.842
3631	0.8312
3640	0.8238
3649	0.8222
3658	0.8223
3667	0.8232
3676	0.8269
3685	0.8313
3694	0.8392
3703	0.8544
3712	0.875
3721	0.901
3730	0.9194
3739	0.9293
3748	0.9377
3757	0.9445
3766	0.951
3775	0.9566
3784	0.9609
3793	0.9652
3802	0.9683
3811	0.9704
3820	0.9724
3829	0.9741
3838	0.9751
3847	0.9753
3856	0.9753
3865	0.9752
3874	0.9748
3883	0.9744
3892	0.974
3901	0.9736
3910	0.9731
3919	0.9726
3928	0.9721
3937	0.9716
3946	0.9711
3955	0.9706
3964	0.97
3973	0.9695
3982	0.969
3991	0.9684
4000	0.9679
