Infrared Spectrum: NITROETHANE
Formula: C2 H5 N O2
CAS: 79-24-3
State: SOLUTION (10% IN CCl4 FOR 3800-1300, 10.1% IN CS2 FOR 1300-650, AND 10.1% IN CCl4 FOR 650-250 CM^-^1) VERSUS SOLVENT
Class: COBLENTZ
Instrument: Not specified, most likely a grating or hybrid spectrometer.
Sampling: TRANSMISSION
Path length: 0.0105, 0.0109, AND 0.0201 CM (CsBr CELL)
Resolution: 4
Origin: DOW CORNING CORP.
1/CM	TRANSMITTANCE
244.089	0.737
253.035	0.736
261.98	0.72
270.926	0.673
279.872	0.627
288.818	0.589
297.763	0.667
306.709	0.751
315.655	0.79
324.6	0.826
333.546	0.832
342.492	0.833
351.438	0.833
360.383	0.825
369.329	0.818
378.275	0.811
387.22	0.793
396.166	0.788
405.112	0.779
414.058	0.769
423.003	0.76
431.949	0.758
440.895	0.758
449.84	0.751
458.786	0.725
467.732	0.708
476.678	0.639
485.623	0.603
494.569	0.603
503.515	0.657
512.46	0.715
521.406	0.729
530.352	0.744
539.298	0.753
548.243	0.75
557.189	0.736
566.135	0.715
575.08	0.671
584.026	0.603
592.972	0.513
601.918	0.4
610.863	0.309
619.809	0.3789
628.755	0.473
637.7	0.55
646.646	0.606
655.592	0.653
664.538	0.723
673.483	0.76
682.429	0.786
691.375	0.795
700.32	0.798
709.266	0.807
718.212	0.821
727.158	0.832
736.103	0.839
745.049	0.837
753.995	0.835
762.94	0.833
771.886	0.826
780.832	0.814
789.778	0.7831
798.723	0.722
807.669	0.62
816.615	0.7219
825.56	0.784
834.506	0.791
843.452	0.779
852.398	0.755
861.343	0.662
870.289	0.232
879.235	0.5778
888.18	0.763
897.126	0.795
906.072	0.805
915.018	0.819
923.963	0.826
932.909	0.826
941.855	0.828
950.8	0.826
959.746	0.819
968.692	0.809
977.638	0.777
986.583	0.657
995.529	0.6569
1004.47	0.769
1013.42	0.783
1022.37	0.788
1031.31	0.79
1040.26	0.791
1049.2	0.786
1058.15	0.772
1067.09	0.755
1076.04	0.72
1084.99	0.639
1093.93	0.4401
1102.88	0.465
1111.82	0.536
1120.77	0.4861
1129.71	0.4369
1138.66	0.603
1147.61	0.699
1156.55	0.741
1165.5	0.762
1174.44	0.769
1183.39	0.776
1192.33	0.776
1201.28	0.774
1210.23	0.765
1219.17	0.746
1228.12	0.701
1237.06	0.6341
1246.01	0.54
1254.95	0.54
1263.9	0.6219
1272.85	0.674
1281.79	0.681
1290.74	0.671
1299.68	0.655
1308.63	0.617
1317.57	0.578
1326.52	0.426
1335.47	0.564
1344.41	0.526
1353.36	0.3372
1362.3	0.041
1371.25	0.232
1380.19	0.3021
1389.14	0.022
1398.09	0.131
1407.03	0.407
1415.98	0.461
1424.92	0.407
1433.87	0.208
1442.81	0.23
1451.76	0.332
1460.71	0.265
1469.65	0.5028
1478.6	0.562
1487.54	0.564
1496.49	0.538
1505.43	0.484
1514.38	0.4
1523.33	0.267
1532.27	0.1311
1541.22	0.001
1550.16	0
1559.11	0
1568.05	0.029
1577	0.145
1585.95	0.34
1594.89	0.458
1603.84	0.555
1612.78	0.636
1621.73	0.69
1630.67	0.741
1639.62	0.774
1648.57	0.797
1657.51	0.811
1666.46	0.825
1675.4	0.833
1684.35	0.839
1693.29	0.853
1702.24	0.861
1711.19	0.868
1720.13	0.87
1729.08	0.87
1738.02	0.87
1746.97	0.87
1755.91	0.872
1764.86	0.87
1773.81	0.872
1782.75	0.868
1791.7	0.872
1800.64	0.872
1809.59	0.877
1818.53	0.874
1827.48	0.87
1836.43	0.872
1845.37	0.867
1854.32	0.865
1863.26	0.87
1872.21	0.87
1881.15	0.872
1890.1	0.87
1899.05	0.867
1907.99	0.875
1916.94	0.872
1925.88	0.874
1934.83	0.868
1943.77	0.868
1952.72	0.87
1961.67	0.868
1970.61	0.865
1979.56	0.867
1988.5	0.868
1997.45	0.867
2006.39	0.878
2015.34	0.874
2024.29	0.88
2033.23	0.874
2042.18	0.872
2051.12	0.881
2060.07	0.876
2069.01	0.874
2077.96	0.872
2086.91	0.872
2095.85	0.872
2104.8	0.872
2113.74	0.873
2122.69	0.874
2131.63	0.873
2140.58	0.868
2149.53	0.87
2158.47	0.872
2167.42	0.8685
2176.36	0.867
2185.31	0.87
2194.25	0.87
2203.2	0.867
2212.15	0.865
2221.09	0.867
2230.04	0.865
2238.98	0.862
2247.93	0.863
2256.87	0.8675
2265.82	0.87
2274.77	0.87
2283.71	0.87
2292.66	0.868
2301.6	0.865
2310.55	0.86
2319.49	0.863
2328.44	0.865
2337.39	0.863
2346.33	0.863
2355.28	0.863
2364.22	0.863
2373.17	0.861
2382.11	0.8605
2391.06	0.86
2400.01	0.85
2408.95	0.839
2417.9	0.8125
2426.84	0.8159
2435.79	0.8485
2444.73	0.856
2453.68	0.854
2462.63	0.849
2471.57	0.851
2480.52	0.854
2489.46	0.854
2498.41	0.858
2507.35	0.861
2516.3	0.86
2525.25	0.854
2534.19	0.851
2543.14	0.846
2552.08	0.851
2561.03	0.855
2569.97	0.858
2578.92	0.861
2587.87	0.863
2596.81	0.865
2605.76	0.863
2614.7	0.862
2623.65	0.861
2632.59	0.859
2641.54	0.858
2650.49	0.8605
2659.43	0.863
2668.38	0.86
2677.32	0.858
2686.27	0.856
2695.21	0.856
2704.16	0.8475
2713.11	0.839
2722.05	0.837
2731	0.833
2739.94	0.8045
2748.89	0.825
2757.83	0.834
2766.78	0.839
2775.73	0.8395
2784.67	0.84
2793.62	0.84
2802.56	0.844
2811.51	0.844
2820.45	0.839
2829.4	0.835
2838.35	0.835
2847.29	0.8265
2856.24	0.812
2865.18	0.7801
2874.13	0.743
2883.07	0.726
2892.02	0.72
2900.97	0.6745
2909.91	0.5762
2918.86	0.6314
2927.8	0.685
2936.75	0.6129
2945.69	0.4771
2954.64	0.5874
2963.59	0.6389
2972.53	0.651
2981.48	0.5961
2990.42	0.4612
2999.37	0.508
3008.31	0.6054
3017.26	0.6808
3026.21	0.7515
3035.15	0.7929
3044.1	0.8195
3053.04	0.835
3061.99	0.8445
3070.93	0.853
3079.88	0.855
3088.83	0.858
3097.77	0.858
3106.72	0.861
3115.66	0.865
3124.61	0.868
3133.55	0.871
3142.5	0.872
3151.45	0.872
3160.39	0.874
3169.34	0.874
3178.28	0.874
3187.23	0.874
3196.17	0.874
3205.12	0.872
3214.07	0.87
3223.01	0.87
3231.96	0.874
3240.9	0.876
3249.85	0.879
3258.79	0.879
3267.74	0.877
3276.69	0.874
3285.63	0.875
3294.58	0.878
3303.52	0.882
3312.47	0.881
3321.41	0.877
3330.36	0.877
3339.31	0.879
3348.25	0.879
3357.2	0.881
3366.14	0.8815
3375.09	0.882
3384.03	0.882
3392.98	0.882
3401.93	0.883
3410.87	0.882
3419.82	0.883
3428.76	0.882
3437.71	0.882
3446.65	0.884
3455.6	0.885
3464.55	0.882
3473.49	0.886
3482.44	0.882
3491.38	0.8895
3500.33	0.882
3509.27	0.884
3518.22	0.891
3527.17	0.882
3536.11	0.881
3545.06	0.891
3554	0.884
3562.95	0.885
3571.89	0.888
3580.84	0.892
3589.79	0.882
3598.73	0.8835
3607.68	0.891
3616.62	0.8885
3625.57	0.888
3634.51	0.886
3643.46	0.889
3652.41	0.885
3661.35	0.891
3670.3	0.883
3679.24	0.882
3688.19	0.877
3697.13	0.879
3706.08	0.8911
3715.03	0.886
3723.97	0.893
3732.92	0.891
3741.86	0.8945
3750.81	0.886
3759.75	0.884
3768.7	0.886
3777.65	0.879
3786.59	0.886
