Infrared Spectrum: Ethane, nitro-
Formula: C 2 H 5 N O 2
CAS: 79-24-3
State: gas
Origin: Sadtler Research Labs Under US-EPA Contract
1/CM	ABSORBANCE
450	0
462	0.0369331
474	0.0265762
486	0.0429909
498	0.0343927
510	0.0371285
522	0.0394734
534	0.0386918
546	0.0345881
558	0.0513936
570	0.039278
582	0.0574514
594	0.0822689
606	0.106891
618	0.121547
630	0.114903
642	0.0687854
654	0.0570606
666	0.0437725
678	0.0363468
690	0.039278
702	0.0369331
714	0.0340019
726	0.0334156
738	0.0289211
750	0.0283349
762	0.0291165
774	0.0273578
786	0.0308753
798	0.0340019
810	0.0373239
822	0.0402551
834	0.0455312
846	0.0613597
858	0.126041
870	0.148709
882	0.142065
894	0.101029
906	0.0386918
918	0.0291165
930	0.0267716
942	0.0250129
954	0.024622
966	0.0275532
978	0.0332202
990	0.0379101
1002	0.0410367
1014	0.0373239
1026	0.032634
1038	0.0324386
1050	0.0312661
1062	0.0361514
1074	0.0476808
1086	0.0681991
1098	0.100638
1110	0.119007
1122	0.118225
1134	0.102006
1146	0.0769927
1158	0.0584285
1170	0.0517844
1182	0.0443588
1194	0.0383009
1206	0.0394734
1218	0.0437725
1230	0.0531523
1242	0.0633138
1254	0.0697624
1266	0.0750386
1278	0.0703487
1290	0.0732799
1302	0.0836368
1314	0.0980973
1326	0.110018
1338	0.164733
1350	0.290775
1362	0.383009
1374	0.427564
1386	0.485797
1398	0.425219
1410	0.438702
1422	0.198735
1434	0.175872
1446	0.186619
1458	0.207529
1470	0.179389
1482	0.143238
1494	0.109627
1506	0.098879
1518	0.135617
1530	0.269084
1542	0.625517
1554	1.38939
1566	1.87421
1578	1.5889
1590	1.81265
1602	0.736121
1614	0.253841
1626	0.0814872
1638	0.0500257
1650	0.0451404
1662	0.0363468
1674	0.0375193
1686	0.0365422
1698	0.0349789
1710	0.0285303
1722	0.0273578
1734	0.0287257
1746	0.0265762
1758	0.0257945
1770	0.0263808
1782	0.0248175
1794	0.0255991
1806	0.0232541
1818	0.0234496
1830	0.024622
1842	0.0242312
1854	0.0232541
1866	0.0242312
1878	0.0228633
1890	0.0232541
1902	0.0222771
1914	0.0228633
1926	0.0230587
1938	0.0230587
1950	0.0232541
1962	0.023645
1974	0.023645
1986	0.0240358
1998	0.0242312
2010	0.0238404
2022	0.0254037
2034	0.0250129
2046	0.0255991
2058	0.0259899
2070	0.024622
2082	0.0238404
2094	0.0230587
2106	0.0224725
2118	0.0216908
2130	0.0226679
2142	0.0224725
2154	0.0216908
2166	0.0224725
2178	0.0222771
2190	0.0226679
2202	0.0230587
2214	0.0238404
2226	0.0232541
2238	0.0240358
2250	0.0242312
2262	0.024622
2274	0.0252083
2286	0.0261853
2298	0.0293119
2310	0.0328294
2322	0.032634
2334	0.0306798
2346	0.0304844
2358	0.0318523
2370	0.0271624
2382	0.0257945
2394	0.0259899
2406	0.0281395
2418	0.0293119
2430	0.0314615
2442	0.0324386
2454	0.0334156
2466	0.0298982
2478	0.0277486
2490	0.0259899
2502	0.0255991
2514	0.0250129
2526	0.0238404
2538	0.024622
2550	0.0255991
2562	0.0252083
2574	0.0257945
2586	0.0254037
2598	0.0248175
2610	0.0242312
2622	0.0230587
2634	0.0218863
2646	0.0222771
2658	0.023645
2670	0.0218863
2682	0.024622
2694	0.0275532
2706	0.0308753
2718	0.0341973
2730	0.035956
2742	0.0386918
2754	0.0371285
2766	0.0369331
2778	0.0328294
2790	0.0314615
2802	0.0298982
2814	0.030289
2826	0.0300936
2838	0.0320477
2850	0.0343927
2862	0.0394734
2874	0.0494395
2886	0.0678083
2898	0.0810964
2910	0.0941891
2922	0.100051
2934	0.116466
2946	0.167078
2958	0.174113
2970	0.169228
2982	0.158089
2994	0.169814
3006	0.179194
3018	0.150468
3030	0.10904
3042	0.0795331
3054	0.0576468
3066	0.0439679
3078	0.0338064
3090	0.0297028
3102	0.0275532
3114	0.0273578
3126	0.0257945
3138	0.0267716
3150	0.0273578
3162	0.0267716
3174	0.0257945
3186	0.0257945
3198	0.0285303
3210	0.0271624
3222	0.026967
3234	0.0240358
3246	0.0248175
3258	0.0244266
3270	0.0248175
3282	0.0248175
3294	0.0224725
3306	0.0232541
3318	0.0240358
3330	0.0224725
3342	0.0230587
3354	0.023645
3366	0.0244266
3378	0.0238404
3390	0.0240358
3402	0.0230587
3414	0.023645
3426	0.0250129
3438	0.024622
3450	0.0252083
3462	0.0244266
3474	0.0257945
3486	0.0248175
3498	0.0226679
3510	0.0240358
3522	0.0273578
3534	0.0234496
3546	0.0259899
3558	0.0242312
3570	0.0242312
3582	0.0230587
3594	0.0242312
3606	0.0273578
3618	0.0232541
3630	0.0250129
3642	0.0234496
3654	0.0255991
3666	0.0242312
3678	0.0248175
3690	0.0250129
3702	0.026967
3714	0.0267716
3726	0.0263808
3738	0.0244266
3750	0.0261853
3762	0.0265762
3774	0.0275532
3786	0.0261853
3798	0.026967
3810	0.0279441
3822	0.0259899
3834	0.024622
3846	0.0252083
3858	0.0291165
3870	0.0285303
3882	0.0271624
3894	0.0263808
3906	0.024622
3918	0.0279441
3930	0.0295074
3942	0.0291165
3954	0.0277486
3966	0.0298982
