Infrared Spectrum: Pentane, 1-iodo-
Formula: C 5 H 11 I
CAS: 628-17-1
State: gas
Origin: Sadtler Research Labs Under US-EPA Contract
1/CM	ABSORBANCE
450	0.00808796
462	0.0251152
474	0.0108549
486	0.00248314
498	0.0322099
510	0.0236963
522	0.0242639
534	0.024122
546	0.017382
558	0.0292302
570	0.0336289
582	0.0339836
594	0.07492
606	0.0364668
618	0.0154664
630	0.0272436
642	0.00617239
654	0.0226321
666	0.0238382
678	0.0236254
690	0.0303653
702	0.0124157
714	0.032139
726	0.0516494
738	0.0439162
750	0.0378148
762	0.0343383
774	0.0214969
786	0.0335579
798	0.0261085
810	0.0270308
822	0.0217098
834	0.0163178
846	0.026818
858	0.0204327
870	0.0258957
882	0.0263213
894	0.0237672
906	0.0296558
918	0.0378148
930	0.0272436
942	0.0237672
954	0.0185881
966	0.0190138
978	0.0271727
990	0.0162469
1002	0.0259666
1014	0.0231997
1026	0.0247605
1038	0.0324937
1050	0.0234835
1062	0.024051
1074	0.0273855
1086	0.0329904
1098	0.0370343
1110	0.0301525
1122	0.021355
1134	0.0312876
1146	0.0346931
1158	0.0496629
1170	0.141255
1182	0.252784
1194	0.157573
1206	0.0767647
1218	0.0764809
1230	0.169563
1242	0.151898
1254	0.0827242
1266	0.0761261
1278	0.061511
1290	0.0622205
1302	0.0600921
1314	0.0346221
1326	0.0394465
1338	0.0473926
1350	0.0580346
1362	0.0452642
1374	0.0465412
1386	0.064207
1398	0.0476054
1410	0.0335579
1422	0.0459027
1434	0.0781836
1446	0.0900317
1458	0.116211
1470	0.109046
1482	0.0661936
1494	0.0329194
1506	0.0251862
1518	0.0234125
1530	0.0171692
1542	0.0211422
1554	0.0136928
1566	0.0131252
1578	0.0124157
1590	0.0110677
1602	0.013338
1614	0.0139056
1626	0.0113515
1638	0.0130542
1650	0.014757
1662	0.0108549
1674	0.0156083
1686	0.0108549
1698	0.0150408
1710	0.0115644
1722	0.009365
1734	0.0184462
1746	0.0172401
1758	0.0163178
1770	0.0114934
1782	0.0100035
1794	0.0111387
1806	0.0135509
1818	0.0100035
1830	0.00971974
1842	0.0100035
1854	0.0102164
1866	0.0134799
1878	0.00794606
1890	0.0095069
1902	0.00610144
1914	0.00780417
1926	0.0109968
1938	0.00886837
1950	0.00986163
1962	0.00851364
1974	0.00886837
1986	0.0105711
1998	0.0102164
2010	0.00461155
2022	0.00837175
2034	0.00822985
2046	0.0104292
2058	0.0114225
2070	0.00659807
2082	0.00886837
2094	0.00801701
2106	0.00908122
2118	0.00844269
2130	0.00673996
2142	0.0083008
2154	0.00971974
2166	0.0083008
2178	0.00773322
2190	0.00844269
2202	0.00822985
2214	0.0106421
2226	0.00631428
2238	0.00730754
2250	0.00681091
2262	0.00688186
2274	0.0117063
2286	0.00822985
2298	0.00801701
2310	0.00659807
2322	0.00553387
2334	0.00964879
2346	0.00865553
2358	0.00312167
2370	0.00631428
2382	0.00901027
2394	0.0083008
2406	0.00964879
2418	0.00432777
2430	0.00673996
2442	0.00553387
2454	0.00681091
2466	0.00716565
2478	0.00475345
2490	0.00737849
2502	0.00631428
2514	0.00681091
2526	0.0046825
2538	0.00397303
2550	0.00376019
2562	0.00702375
2574	0.00510818
2586	0.00766228
2598	0.00865553
2610	0.00794606
2622	0.0122738
2634	0.00808796
2646	0.00901027
2658	0.00844269
2670	0.00879743
2682	0.0126286
2694	0.0113515
2706	0.00957784
2718	0.00908122
2730	0.013409
2742	0.0166016
2754	0.01873
2766	0.0102164
2778	0.01199
2790	0.0189428
2802	0.0248314
2814	0.0317133
2826	0.0359701
2838	0.0708761
2850	0.121036
2862	0.190422
2874	0.261014
2886	0.297552
2898	0.236324
2910	0.239872
2922	0.361262
2934	0.559559
2946	0.590634
2958	0.505426
2970	0.70947
2982	0.438523
2994	0.152749
3006	0.085633
3018	0.0671868
3030	0.0517913
3042	0.0341965
3054	0.0247605
3066	0.0182334
3078	0.0163888
3090	0.0152536
3102	0.0183043
3114	0.0135509
3126	0.0134799
3138	0.0144022
3150	0.0118481
3162	0.014757
3174	0.00879743
3186	0.0131252
3198	0.0117063
3210	0.0117063
3222	0.0114934
3234	0.00610144
3246	0.0107839
3258	0.0109968
3270	0.0124157
3282	0.00993258
3294	0.00744943
3306	0
3318	0.00766228
3330	0.0101454
3342	0.0122738
3354	0.0137637
3366	0.00340546
3378	0.0101454
3390	0.00986163
3402	0.0117063
3414	0.00766228
3426	0.00461155
3438	0.00858459
3450	0.0122029
3462	0.0130542
3474	0.00688186
3486	0.00908122
3498	0.00893932
3510	0.0101454
3522	0.00510818
3534	0.00737849
3546	0.00837175
3558	0.0100035
3570	0.014757
3582	0.0081589
3594	0.0130542
3606	0.00893932
3618	0.0102164
3630	0.0132671
3642	0.0102873
3654	0.00865553
3666	0.0100035
3678	0.0119191
3690	0.014757
3702	0.0154664
3714	0.00737849
3726	0.0123448
3738	0.0129124
3750	0.0151827
3762	0.0122029
3774	0.00546292
3786	0.0137637
3798	0.0142603
3810	0.017453
3822	0.0112096
3834	0.00993258
3846	0.0142603
3858	0.0129833
3870	0.0148279
3882	0.0141894
3894	0.0115644
3906	0.009365
3918	0.0169563
3930	0.00993258
3942	0.0170982
3954	0.00205746
3966	0.00305072
