Infrared Spectrum: 1-Iodopentane
Formula: C5 H11 I
CAS: 628-17-1
State: SOLUTION (10% CCl4 FOR 3800-1340, 10% CS2 FOR 1340-400)
Class: COBLENTZ III
Instrument: DOW KBr FOREPRISM-GRATING
Instrument parameters: BLAZED AT 3.5, 12.0, 20.0 AND CHANGED AT 5.0, 7.5, 14.9 MICRON
Sampling: TRANSMISSION
Path length: 0.0107 CM, 0.0103 CM
Resolution: 2
Origin: DOW CHEMICAL COMPANY
1/CM	TRANSMITTANCE
3802	0.9117
3793	0.9115
3784	0.9095
3775	0.9071
3766	0.9071
3757	0.9064
3748	0.9078
3739	0.9131
3730	0.9192
3721	0.9198
3712	0.9178
3703	0.9151
3694	0.9114
3685	0.9082
3676	0.9066
3667	0.907
3658	0.9077
3649	0.9096
3640	0.9113
3631	0.9123
3622	0.912
3613	0.9116
3604	0.9111
3595	0.9096
3586	0.9078
3577	0.9064
3568	0.9044
3559	0.9036
3550	0.9038
3541	0.9041
3532	0.9041
3523	0.9027
3514	0.9025
3505	0.9025
3496	0.9022
3487	0.902
3478	0.9027
3469	0.9053
3460	0.9079
3451	0.9105
3442	0.9134
3433	0.9162
3424	0.9181
3415	0.9198
3406	0.9218
3397	0.9215
3388	0.9207
3379	0.9189
3370	0.9162
3361	0.9116
3352	0.9085
3343	0.9081
3334	0.9075
3325	0.9069
3316	0.9064
3307	0.906
3298	0.905
3289	0.9039
3280	0.9031
3271	0.903
3262	0.902
3253	0.9008
3244	0.8993
3235	0.8988
3226	0.8969
3217	0.898
3208	0.8981
3199	0.897
3190	0.8957
3181	0.8958
3172	0.8936
3163	0.8925
3154	0.8909
3145	0.8886
3136	0.889
3127	0.8883
3118	0.8874
3109	0.8864
3100	0.8873
3091	0.8884
3082	0.8831
3073	0.8847
3064	0.8797
3055	0.8767
3046	0.8738
3037	0.8753
3028	0.8631
3019	0.8507
3010	0.8201
3001	0.7684
2992	0.7538
2983	0.6445
2974	0.498
2965	0.1715
2956	0.1454
2947	0.3359
2938	0.28
2929	0.1787
2920	0.2278
2911	0.3447
2902	0.4619
2893	0.5693
2884	0.5812
2875	0.3863
2866	0.4002
2857	0.441
2848	0.5445
2839	0.6729
2830	0.6997
2821	0.794
2812	0.8181
2803	0.8369
2794	0.8461
2785	0.8523
2776	0.8582
2767	0.8625
2758	0.8651
2749	0.8654
2740	0.8617
2731	0.8558
2722	0.858
2713	0.8609
2704	0.8633
2695	0.8645
2686	0.8627
2677	0.8592
2668	0.858
2659	0.859
2650	0.8602
2641	0.8618
2632	0.8611
2623	0.8592
2614	0.8566
2605	0.8541
2596	0.8541
2587	0.8543
2578	0.855
2569	0.8561
2560	0.857
2551	0.8567
2542	0.8559
2533	0.8552
2524	0.8546
2515	0.854
2506	0.8535
2497	0.853
2488	0.8522
2479	0.8522
2470	0.8513
2461	0.8504
2452	0.8489
2443	0.8472
2434	0.8449
2425	0.8425
2416	0.8406
2407	0.8396
2398	0.8395
2389	0.8388
2380	0.839
2371	0.8561
2362	0.8607
2353	0.856
2344	0.8447
2335	0.8421
2326	0.8447
2317	0.8428
2308	0.8364
2299	0.8276
2290	0.8203
2281	0.821
2272	0.8187
2263	0.8157
2254	0.8136
2245	0.814
2236	0.8162
2227	0.8183
2218	0.8195
2209	0.8216
2200	0.8238
2191	0.8242
2182	0.826
2173	0.8288
2164	0.8294
2155	0.8304
2146	0.8312
2137	0.8319
2128	0.8318
2119	0.8318
2110	0.8315
2101	0.8312
2092	0.8308
2083	0.8305
2074	0.8303
2065	0.83
2056	0.8306
2047	0.8289
2038	0.8283
2029	0.8292
2020	0.8318
2011	0.8339
2002	0.8367
1993	0.8302
1984	0.7698
1975	0.7211
1966	0.7739
1957	0.7539
1948	0.7683
1939	0.8018
1930	0.8242
1921	0.8182
1912	0.8004
1903	0.8132
1894	0.841
1885	0.8509
1876	0.8601
1867	0.8636
1858	0.8624
1849	0.8617
1840	0.8625
1831	0.8632
1822	0.8644
1813	0.8666
1804	0.8665
1795	0.8675
1786	0.8688
1777	0.8689
1768	0.8678
1759	0.8667
1750	0.8672
1741	0.8678
1732	0.8674
1723	0.8665
1714	0.8656
1705	0.8676
1696	0.8718
1687	0.8663
1678	0.8686
1669	0.8735
1660	0.875
1651	0.8775
1642	0.8824
1633	0.8838
1624	0.8709
1615	0.8693
1606	0.8749
1597	0.8625
1588	0.8376
1579	0.8036
1570	0.8038
1561	0.7732
1552	0.765
1543	0.7323
1534	0.7682
1525	0.7798
1516	0.7901
1507	0.7972
1498	0.7971
1489	0.8027
1480	0.8069
1471	0.7697
1462	0.4887
1453	0.5493
1444	0.696
1435	0.7108
1426	0.6364
1417	0.7924
1408	0.8172
1399	0.8342
1390	0.8333
1381	0.7046
1372	0.7871
1363	0.7867
1354	0.8159
1345	0.7894
1336	0.7742
1327	0.7918
1318	0.8016
1309	0.814
1300	0.7966
1291	0.7508
1282	0.7664
1273	0.7906
1264	0.7543
1255	0.7529
1246	0.7565
1237	0.7607
1228	0.4148
1219	0.6711
1210	0.803
1201	0.8121
1192	0.7425
1183	0.5509
1174	0.4933
1165	0.526
1156	0.8047
1147	0.8269
1138	0.8365
1129	0.8344
1120	0.8623
1111	0.8652
1102	0.8476
1093	0.8464
1084	0.835
1075	0.8535
1066	0.8598
1057	0.8582
1048	0.8545
1039	0.85
1030	0.8347
1021	0.8435
1012	0.8565
1003	0.8663
994	0.8733
985	0.8801
976	0.8827
967	0.8808
958	0.8765
949	0.8799
940	0.8821
931	0.8777
922	0.8609
913	0.8288
904	0.8426
895	0.8672
886	0.8758
877	0.8717
868	0.8577
859	0.8543
850	0.8232
841	0.7946
832	0.8377
823	0.8639
814	0.8589
805	0.8444
796	0.8559
787	0.8437
778	0.8379
769	0.8338
760	0.8171
751	0.8263
742	0.8231
733	0.7874
724	0.7461
715	0.7459
706	0.8086
697	0.8285
688	0.8388
679	0.8415
670	0.8462
661	0.8643
652	0.8444
643	0.8378
634	0.8445
625	0.849
616	0.8536
607	0.8468
598	0.7896
589	0.7332
580	0.7679
571	0.8229
562	0.8342
553	0.8346
544	0.8295
535	0.825
526	0.8192
517	0.8086
508	0.789
499	0.7865
490	0.8126
481	0.8248
472	0.8248
463	0.836
454	0.8407
445	0.8398
436	0.8315
427	0.818
418	0.7975
409	0.76
400	0.691
391	0.6353
382	0.5413
