Infrared Spectrum: Diethylamine
Formula: C 4 H 11 N
CAS: 109-89-7
State: gas
Origin: EPA-IR VAPOR PHASE LIBRARY
1/CM	ABSORBANCE
501.5	0.01228
513.074	0.01059
524.648	0.00984
536.222	0.00984
547.796	0.01045
559.37	0.01215
570.944	0.0142
582.518	0.01721
594.092	0.02061
605.666	0.02564
617.24	0.03205
628.814	0.04052
640.388	0.05174
651.962	0.06653
663.536	0.08311
675.11	0.09818
686.684	0.10701
698.258	0.10788
709.832	0.09843
721.406	0.08304
732.98	0.06528
744.554	0.04782
756.128	0.03419
767.702	0.02576
779.276	0.02107
790.85	0.0177
802.423	0.01482
813.997	0.01238
825.571	0.01039
837.145	0.0095
848.719	0.00938
860.293	0.00974
871.867	0.01016
883.441	0.01037
895.015	0.01028
906.589	0.01004
918.163	0.00998
929.737	0.00931
941.311	0.00866
952.885	0.00784
964.459	0.00808
976.033	0.00942
987.607	0.01198
999.181	0.01599
1010.76	0.0208
1022.33	0.02564
1033.9	0.02996
1045.48	0.03193
1057.05	0.03228
1068.63	0.03046
1080.2	0.03234
1091.77	0.04159
1103.35	0.06087
1114.92	0.09718
1126.49	0.15484
1138.07	0.20001
1149.64	0.19328
1161.22	0.13735
1172.79	0.08788
1184.36	0.05526
1195.94	0.03779
1207.51	0.02401
1219.09	0.01608
1230.66	0.01411
1242.23	0.0168
1253.81	0.02161
1265.38	0.02562
1276.96	0.02878
1288.53	0.02983
1300.1	0.03228
1311.68	0.04101
1323.25	0.05791
1334.83	0.07154
1346.4	0.07094
1357.97	0.07342
1369.55	0.095
1381.12	0.10233
1392.7	0.09596
1404.27	0.05253
1415.84	0.04386
1427.42	0.06233
1438.99	0.09229
1450.57	0.11774
1462.14	0.11172
1473.71	0.09126
1485.29	0.05802
1496.86	0.03359
1508.44	0.01924
1520.01	0.01276
1531.58	0.00962
1543.16	0.00796
1554.73	0.00703
1566.31	0.00633
1577.88	0.00572
1589.45	0.00518
1601.03	0.00493
1612.6	0.00467
1624.18	0.00449
1635.75	0.00429
1647.32	0.0042
1658.9	0.00407
1670.47	0.00386
1682.05	0.00356
1693.62	0.00323
1705.19	0.00292
1716.77	0.00277
1728.34	0.00264
1739.92	0.00264
1751.49	0.00261
1763.06	0.00259
1774.64	0.00269
1786.21	0.00288
1797.79	0.00326
1809.36	0.00362
1820.93	0.00394
1832.51	0.00407
1844.08	0.00398
1855.66	0.00364
1867.23	0.0031
1878.8	0.00268
1890.38	0.00233
1901.95	0.00217
1913.53	0.00219
1925.1	0.00224
1936.67	0.00224
1948.25	0.00215
1959.82	0.00208
1971.4	0.00203
1982.97	0.00196
1994.54	0.00185
2006.12	0.00175
2017.69	0.00152
2029.27	0.00132
2040.84	0.00125
2052.41	0.00121
2063.99	0.00118
2075.56	0.00115
2087.14	0.00111
2098.71	0.0009954
2110.28	0.0008957
2121.86	0.0009792
2133.43	0.00114
2145.01	0.00145
2156.58	0.00176
2168.15	0.0019
2179.73	0.00184
2191.3	0.00162
2202.88	0.00154
2214.45	0.00158
2226.02	0.00177
2237.6	0.00205
2249.17	0.00232
2260.74	0.00253
2272.32	0.00264
2283.89	0.00252
2295.47	0.00235
2307.04	0.00213
2318.61	0.00199
2330.19	0.00192
2341.76	0.00188
2353.34	0.00189
2364.91	0.00208
2376.48	0.0022
2388.06	0.00238
2399.63	0.00261
2411.21	0.00274
2422.78	0.00263
2434.35	0.00236
2445.93	0.00213
2457.5	0.00217
2469.08	0.00236
2480.65	0.00261
2492.22	0.00296
2503.8	0.00319
2515.37	0.00352
2526.95	0.00399
2538.52	0.0048
2550.09	0.00573
2561.67	0.0069
2573.24	0.00811
2584.82	0.0093
2596.39	0.01057
2607.96	0.01201
2619.54	0.01377
2631.11	0.01575
2642.69	0.01783
2654.26	0.02
2665.83	0.02265
2677.41	0.02587
2688.98	0.02935
2700.56	0.03271
2712.13	0.03643
2723.7	0.04134
2735.28	0.04752
2746.85	0.05544
2758.43	0.06746
2770	0.08723
2781.57	0.11994
2793.15	0.16618
2804.72	0.21655
2816.3	0.25334
2827.87	0.26507
2839.44	0.25183
2851.02	0.22794
2862.59	0.22261
2874.17	0.24113
2885.74	0.25417
2897.31	0.26171
2908.89	0.26458
2920.46	0.29206
2932.04	0.33533
2943.61	0.38246
2955.18	0.4515
2966.76	0.49027
2978.33	0.44885
2989.91	0.31472
3001.48	0.17563
3013.05	0.09503
3024.63	0.05331
3036.2	0.03468
3047.78	0.02635
3059.35	0.02184
3070.92	0.01904
3082.5	0.01719
3094.07	0.01558
3105.65	0.01365
3117.22	0.01183
3128.79	0.01041
3140.37	0.00943
3151.94	0.00872
3163.52	0.00822
3175.09	0.00788
3186.66	0.0074
3198.24	0.00675
3209.81	0.00572
3221.39	0.00464
3232.96	0.00355
3244.53	0.00259
3256.11	0.00207
3267.68	0.00165
3279.26	0.00138
3290.83	0.00121
3302.4	0.00123
3313.98	0.00134
3325.55	0.00169
3337.13	0.00186
3348.7	0.00185
3360.27	0.00177
3371.85	0.00168
3383.42	0.00151
3395	0.00146
3406.57	0.00133
3418.14	0.00115
3429.72	0.0009755
3441.29	0.0008114
3452.86	0.0007487
3464.44	0.0008125
3476.01	0.0006646
3487.59	0.0004557
3499.16	0.0004449
3510.73	0.000477
3522.31	0.0005646
3533.88	0.0005478
3545.46	0.0003909
3557.03	0.0005597
3568.6	0.0004765
3580.18	0.0003878
3591.75	0.0004835
3603.33	0.0006655
3614.9	0.0008129
3626.47	0.0009744
3638.05	0.00108
3649.62	0.0009756
3661.2	0.0009714
3672.77	0.00114
3684.34	0.001
3695.92	0.00117
3707.49	0.00137
3719.07	0.00125
3730.64	0.00117
3742.21	0.00114
3753.79	0.00118
3765.36	0.00118
3776.94	0.00116
3788.51	0.00102
3800.08	0.00115
3811.66	0.00101
3823.23	0.0011
3834.81	0.00112
3846.38	0.0009809
3857.95	0.00109
3869.53	0.00113
3881.1	0.00125
3892.68	0.00135
3904.25	0.00148
3915.82	0.00181
3927.4	0.00213
3938.97	0.00248
3950.55	0.00281
3962.12	0.00285
3973.69	0.00304
3985.27	0.00318
3996.84	0.00314
