Infrared Spectrum: Carbonic acid, dimethyl ester
Formula: C 3 H 6 O 3
CAS: 616-38-6
State: gas
Origin: Sadtler Research Labs Under US-EPA Contract
1/CM	ABSORBANCE
450	0.0260846
462	0.0175992
474	0.0166564
486	0.00447838
498	0.0252989
510	0.0152422
522	0.0151636
534	0.0115495
546	0.0157136
558	0.00707112
570	0.0173635
582	0.00345699
594	0.0130423
606	0.0139851
618	0.0154779
630	0.0146922
642	0.00644258
654	0.0184635
666	0.00699255
678	0.010921
690	0.0206634
702	0.0158707
714	0.00730682
726	0.00895675
738	0.0131994
750	0.0095853
762	0.0126494
774	0.0203491
786	0.0241204
798	0.0268703
810	0.0340199
822	0.0206634
834	0.0131994
846	0.0115495
858	0.0142208
870	0.0143779
882	0.0147708
894	0.0227847
906	0.0310344
918	0.0359841
930	0.030563
942	0.0216848
954	0.0251418
966	0.0463551
978	0.0870533
990	0.0903532
1002	0.0549976
1014	0.0175207
1026	0.0171278
1038	0.0176778
1050	0.0155565
1062	0.0147708
1074	0.0150851
1086	0.0110781
1098	0.0163421
1110	0.0184635
1122	0.0124137
1134	0.0112352
1146	0.0114709
1158	0.0146136
1170	0.0175207
1182	0.0224704
1194	0.025456
1206	0.0304058
1218	0.0397554
1230	0.0513049
1242	0.0720469
1254	0.114945
1266	0.247411
1278	0.572839
1290	0.78568
1302	0.62273
1314	0.142365
1326	0.0274202
1338	0.0205062
1350	0.0158707
1362	0.0159493
1374	0.0150851
1386	0.0157922
1398	0.0183849
1410	0.0195634
1422	0.0252203
1434	0.0380269
1446	0.104338
1458	0.13443
1470	0.0896461
1482	0.0266346
1494	0.020192
1506	0.0190135
1518	0.0168921
1530	0.0143779
1542	0.0157922
1554	0.0131209
1566	0.0125709
1578	0.0139065
1590	0.0135923
1602	0.0160279
1614	0.0155565
1626	0.0123352
1638	0.0115495
1650	0.0133566
1662	0.00903532
1674	0.0123352
1686	0.0118638
1698	0.013278
1710	0.012178
1722	0.018542
1734	0.0376341
1746	0.0839106
1758	0.189427
1770	0.241439
1782	0.293609
1794	0.149751
1806	0.0675685
1818	0.021999
1830	0.0114709
1842	0.0076211
1854	0.00534262
1866	0.00557833
1878	0.00526406
1890	0.00652114
1902	0.00675685
1914	0.0061283
1926	0.00463551
1938	0.00439981
1950	0.00479265
1962	0.00534262
1974	0.00471408
1986	0.00479265
1998	0.00424267
2010	0.00384983
2022	0.00400697
2034	0.0036927
2046	0.00400697
2058	0.0039284
2070	0.00439981
2082	0.00526406
2094	0.0058926
2106	0.00597117
2118	0.00510692
2130	0.0041641
2142	0.00463551
2154	0.00400697
2166	0.00432124
2178	0.00557833
2190	0.00738539
2202	0.00840678
2214	0.00738539
2226	0.00377126
2238	0.00251418
2250	0.00227847
2262	0.00251418
2274	0.00274988
2286	0.00345699
2298	0.00494978
2310	0.00628544
2322	0.00377126
2334	0.00180706
2346	0.00298558
2358	0.00235704
2370	0.0017285
2382	0.00408554
2394	0.00235704
2406	0.00180706
2418	0.0021999
2430	0.00188563
2442	0.00157136
2454	0.00149279
2466	0.00180706
2478	0.00164993
2490	0.00149279
2502	0.00188563
2514	0.00164993
2526	0.00133566
2538	0.000864248
2550	0.00117852
2562	0.00109995
2574	0.00109995
2586	0.000942816
2598	0.000707112
2610	0.000235704
2622	0.00039284
2634	0.000707112
2646	0.000864248
2658	0.00141422
2670	0.00157136
2682	0.00180706
2694	0.00157136
2706	0.00109995
2718	0.00102138
2730	0.000707112
2742	0.000549976
2754	0.000864248
2766	0.00102138
2778	0.000864248
2790	0.00109995
2802	0.00188563
2814	0.00235704
2826	0.00290702
2838	0.00424267
2850	0.0131209
2862	0.016185
2874	0.0151636
2886	0.00730682
2898	0.00777823
2910	0.0119423
2922	0.0150851
2934	0.015635
2946	0.023099
2958	0.0598688
2970	0.0611259
2982	0.0471408
2994	0.0245132
3006	0.028913
3018	0.0272631
3030	0.0260846
3042	0.0216848
3054	0.0152422
3066	0.0107638
3078	0.00864248
3090	0.00683542
3102	0.00581403
3114	0.00573546
3126	0.0041641
3138	0.0039284
3150	0.00282845
3162	0.00259274
3174	0.00227847
3186	0.00267131
3198	0.00243561
3210	0.00204277
3222	0.00212134
3234	0.00235704
3246	0.0017285
3258	0.00180706
3270	0.00212134
3282	0.00141422
3294	0.00133566
3306	0.00164993
3318	0.0019642
3330	0.00141422
3342	0.00117852
3354	0.00133566
3366	0.00180706
3378	0.00180706
3390	0.0017285
3402	0.00180706
3414	0.00188563
3426	0.00164993
3438	0.00204277
3450	0.00149279
3462	0.00109995
3474	0.0021999
3486	0.000864248
3498	0.00259274
3510	0.00204277
3522	0.00204277
3534	0.00290702
3546	0.00314272
3558	0.00109995
3570	0.0017285
3582	0.00141422
3594	0.00149279
3606	0.00157136
3618	0.00133566
3630	0.000707112
3642	0.0019642
3654	0.00125709
3666	0.00204277
3678	0.00188563
3690	0.00141422
3702	0.00125709
3714	0.00157136
3726	0.000942816
3738	0.000549976
3750	0.000707112
3762	0.00157136
3774	0.00117852
3786	0.000942816
3798	0.00125709
3810	0.00314272
3822	0.000942816
3834	0.00259274
3846	0.00109995
3858	0
3870	0.00204277
3882	0.0021999
3894	0.00141422
3906	0.00188563
3918	0.00141422
3930	0.00180706
3942	0.00125709
3954	0.00361413
3966	0.00290702
