Infrared Spectrum: CARBONIC ACID, DIMETHYL ESTER
Formula: C3 H6 O3
CAS: 616-38-6
State: SOLUTION (10% CCl4 FOR 3800-1333, 10% CS2 FOR 1333-430 CM^-^1)
Class: COBLENTZ III
Instrument: Not specified, most likely a prism, grating, or hybrid spectrometer.
Sampling: TRANSMISSION
Path length: 0.011 CM, 0.011 CM
Resolution: 4
Origin: DOW CHEMICAL COMPANY
1/CM	TRANSMITTANCE
422.315	0.911
431.454	0.911
440.594	0.921
449.733	0.928
458.873	0.944
468.012	0.955
477.151	0.976
486.291	0.989
495.43	0.985
504.57	0.976
513.709	0.807
522.848	0.9889
531.988	1.007
541.127	1.008
550.267	1.008
559.406	1.005
568.545	0.991
577.685	0.9318
586.824	1.003
595.964	1.003
605.103	1.003
614.242	1.003
623.382	0.987
632.521	0.964
641.661	0.939
650.8	0.925
659.939	0.948
669.079	0.96
678.218	0.969
687.358	0.957
696.497	0.969
705.636	0.976
714.776	0.975
723.915	0.975
733.054	0.971
742.194	0.969
751.333	0.953
760.473	0.919
769.612	0.848
778.751	0.725
787.891	0.327
797.03	0.0439
806.17	0.5796
815.309	0.811
824.448	0.886
833.588	0.889
842.727	0.864
851.867	0.781
861.006	0.768
870.145	0.8
879.285	0.814
888.424	0.813
897.564	0.7631
906.703	0.4942
915.842	0.042
924.982	0.51
934.121	0.717
943.261	0.681
952.4	0.597
961.539	0.3751
970.679	0
979.818	0
988.958	0.2658
998.097	0.6969
1007.24	0.822
1016.38	0.83
1025.52	0.77
1034.65	0.879
1043.79	0.919
1052.93	0.932
1062.07	0.932
1071.21	0.925
1080.35	0.909
1089.49	0.8481
1098.63	0.775
1107.77	0.887
1116.91	0.854
1126.05	0.862
1135.19	0.877
1144.33	0.861
1153.47	0.829
1162.61	0.774
1171.75	0.6931
1180.88	0.6579
1190.02	0.642
1199.16	0.528
1208.3	0.261
1217.44	0.4281
1226.58	0.282
1235.72	0.163
1244.86	0.06
1254	0.012
1263.14	0.001
1272.28	0
1281.42	0
1290.56	0.003
1299.7	0.012
1308.84	0.1219
1317.98	0.361
1327.12	0.524
1336.25	0.594
1345.39	0.667
1354.53	0.72
1363.67	0.761
1372.81	0.775
1381.95	0.786
1391.09	0.791
1400.23	0.798
1409.37	0.758
1418.51	0.658
1427.65	0.286
1436.79	0.1168
1445.93	0.0783
1455.07	0.019
1464.21	0.062
1473.35	0.338
1482.49	0.5319
1491.62	0.565
1500.76	0.622
1509.9	0.642
1519.04	0.626
1528.18	0.599
1537.32	0.533
1546.46	0.446
1555.6	0.437
1564.74	0.5
1573.88	0.556
1583.02	0.542
1592.16	0.553
1601.3	0.556
1610.44	0.6101
1619.58	0.823
1628.72	0.846
1637.85	0.791
1646.99	0.786
1656.13	0.786
1665.27	0.795
1674.41	0.818
1683.55	0.791
1692.69	0.747
1701.83	0.62
1710.97	0.4391
1720.11	0.3111
1729.25	0.149
1738.39	0.049
1747.53	0.005
1756.67	0.005
1765.81	0.003
1774.95	0.033
1784.09	0.225
1793.22	0.455
1802.36	0.5649
1811.5	0.599
1820.64	0.708
1829.78	0.795
1838.92	0.868
1848.06	0.912
1857.2	0.935
1866.34	0.941
1875.48	0.928
1884.62	0.905
1893.76	0.882
1902.9	0.8799
1912.04	0.946
1921.18	0.967
1930.32	0.969
1939.45	0.969
1948.59	0.964
1957.73	0.953
1966.87	0.927
1976.01	0.934
1985.15	0.96
1994.29	0.971
2003.43	0.982
2012.57	0.981
2021.71	0.979
2030.85	0.969
2039.99	0.9741
2049.13	0.973
2058.27	0.9633
2067.41	0.9511
2076.55	0.9213
2085.69	0.8922
2094.82	0.9035
2103.96	0.9431
2113.1	0.9558
2122.24	0.955
2131.38	0.955
2140.52	0.9628
2149.66	0.967
2158.8	0.9645
2167.94	0.9568
2177.08	0.9294
2186.22	0.8593
2195.36	0.788
2204.5	0.8126
2213.64	0.9066
2222.78	0.9556
2231.92	0.9676
2241.05	0.973
2250.19	0.976
2259.33	0.976
2268.47	0.9724
2277.61	0.967
2286.75	0.964
2295.89	0.966
2305.03	0.969
2314.17	0.9735
2323.31	0.9835
2332.45	0.9881
2341.59	0.9796
2350.73	0.9776
2359.87	0.9758
2369.01	0.971
2378.15	0.9746
2387.29	0.9633
2396.42	0.955
2405.56	0.9565
2414.7	0.9752
2423.84	0.9783
2432.98	0.9777
2442.12	0.969
2451.26	0.9783
2460.4	0.976
2469.54	0.969
2478.68	0.9583
2487.82	0.95
2496.96	0.9512
2506.1	0.9622
2515.24	0.964
2524.38	0.964
2533.52	0.9589
2542.66	0.9457
2551.79	0.934
2560.93	0.9413
2570.07	0.9532
2579.21	0.9642
2588.35	0.973
2597.49	0.9729
2606.63	0.962
2615.77	0.967
2624.91	0.971
2634.05	0.969
2643.19	0.964
2652.33	0.9511
2661.47	0.9078
2670.61	0.8946
2679.75	0.9611
2688.89	0.9729
2698.02	0.976
2707.16	0.9761
2716.3	0.973
2725.44	0.971
2734.58	0.9748
2743.72	0.976
2752.86	0.978
2762	0.978
2771.14	0.9762
2780.28	0.973
2789.42	0.9733
2798.56	0.9673
2807.7	0.964
2816.84	0.955
2825.98	0.9413
2835.12	0.8978
2844.26	0.7408
2853.39	0.3971
2862.53	0.6819
2871.67	0.846
2880.81	0.8348
2889.95	0.8194
2899.09	0.7614
2908.23	0.715
2917.37	0.7329
2926.51	0.758
2935.65	0.7333
2944.79	0.5568
2953.93	0.2166
2963.07	0.0763
2972.21	0.4258
2981.35	0.61
2990.49	0.5086
2999.62	0.3594
3008.76	0.3124
3017.9	0.4244
3027.04	0.4523
3036.18	0.4568
3045.32	0.5891
3054.46	0.744
3063.6	0.8546
3072.74	0.8892
3081.88	0.9103
3091.02	0.9165
3100.16	0.9325
3109.3	0.939
3118.44	0.9502
3127.58	0.959
3136.72	0.9652
3145.86	0.9678
3154.99	0.9742
3164.13	0.975
3173.27	0.9739
3182.41	0.971
3191.55	0.9741
3200.69	0.98
3209.83	0.9825
3218.97	0.989
3228.11	0.987
3237.25	0.99
3246.39	0.992
3255.53	0.996
3264.67	1
3273.81	1
3282.95	1
3292.09	1
3301.22	1
3310.36	1
3319.5	1
3328.64	1
3337.78	0.998
3346.92	0.996
3356.06	0.996
3365.2	0.996
3374.34	0.9952
3383.48	0.991
3392.62	0.989
3401.76	0.991
3410.9	0.9902
3420.04	0.991
3429.18	0.992
3438.32	0.994
3447.46	0.9916
3456.59	0.985
3465.73	0.978
3474.87	0.9597
3484.01	0.9437
3493.15	0.9167
3502.29	0.9349
3511.43	0.9521
3520.57	0.975
3529.71	0.9827
3538.85	0.982
3547.99	0.9815
3557.13	0.98
3566.27	0.98
3575.41	0.9805
3584.55	0.9835
3593.69	0.987
3602.83	0.989
3611.96	0.989
3621.1	0.9886
3630.24	0.985
3639.38	0.987
3648.52	0.9866
3657.66	0.987
3666.8	0.989
3675.94	0.985
3685.08	0.9803
3694.22	0.982
3703.36	0.9873
3712.5	0.9943
3721.64	0.998
3730.78	0.998
3739.92	1
3749.06	1
3758.19	1.0001
3767.33	1.001
3776.47	1.003
3785.61	1.003
