Infrared Spectrum: CYCLOPROPYLAMINE
Formula: C3 H7 N
CAS: 765-30-0
State: SOLUTION (10% IN CCl4)
Class: COBLENTZ
Instrument: PERKIN-ELMER
Sampling: TRANSMISSION
Path length: 0.010 CM
Resolution: 4
Origin: ABBOTT LABORATORIES - WASHBURN
MICROMETERS	TRANSMITTANCE
2.014	0.882
2.04825	0.882
2.08249	0.8719
2.11674	0.8792
2.15098	0.886
2.18523	0.889
2.21947	0.889
2.25372	0.8889
2.28796	0.872
2.32221	0.881
2.35645	0.8871
2.3907	0.8889
2.42494	0.879
2.45919	0.882
2.49343	0.8911
2.52768	0.898
2.56192	0.901
2.59617	0.903
2.63041	0.9
2.66466	0.898
2.6989	0.9
2.73315	0.8981
2.76739	0.889
2.80164	0.9
2.83588	0.896
2.87013	0.891
2.90437	0.8739
2.93862	0.8387
2.97286	0.7252
3.00711	0.7787
3.04135	0.803
3.0756	0.8203
3.10984	0.8458
3.14409	0.858
3.17833	0.8581
3.21258	0.8619
3.24682	0.795
3.28107	0.6407
3.31531	0.7299
3.34956	0.417
3.3838	0.4007
3.41805	0.6014
3.45229	0.7755
3.48654	0.8411
3.52078	0.844
3.55503	0.8599
3.58927	0.874
3.62352	0.8942
3.65776	0.9079
3.69201	0.908
3.72625	0.903
3.7605	0.908
3.79474	0.913
3.82899	0.913
3.86323	0.917
3.89748	0.912
3.93172	0.912
3.96597	0.9121
4.00021	0.913
4.03446	0.912
4.0687	0.9118
4.10295	0.9116
4.13719	0.9
4.17144	0.901
4.20568	0.9032
4.23993	0.91
4.27417	0.91
4.30842	0.912
4.34266	0.9118
4.37691	0.908
4.41115	0.903
4.4454	0.898
4.47964	0.8888
4.51389	0.889
4.54813	0.893
4.58238	0.884
4.61662	0.8892
4.65087	0.8908
4.68511	0.887
4.71936	0.882
4.7536	0.8792
4.78785	0.884
4.82209	0.8809
4.85634	0.87
4.89058	0.8556
4.92483	0.846
4.95907	0.853
4.99332	0.862
5.02756	0.867
5.06181	0.8698
5.09605	0.872
5.1303	0.872
5.16454	0.872
5.19879	0.8696
5.23303	0.856
5.26728	0.8569
5.30152	0.853
5.33577	0.8536
5.37001	0.8557
5.40426	0.8552
5.4385	0.856
5.47275	0.855
5.50699	0.86
5.54124	0.858
5.57548	0.856
5.60973	0.8545
5.64397	0.8503
5.67822	0.843
5.71246	0.85
5.74671	0.858
5.78095	0.858
5.8152	0.862
5.84944	0.8652
5.88369	0.8553
5.91793	0.8527
5.95218	0.8439
5.98642	0.8339
6.02067	0.812
6.05491	0.781
6.08916	0.7529
6.1234	0.7089
6.15765	0.648
6.19189	0.5895
6.22614	0.567
6.26038	0.6114
6.29463	0.6718
6.32887	0.7159
6.36312	0.7391
6.39736	0.7544
6.43161	0.7755
6.46585	0.7914
6.5001	0.8132
6.53434	0.818
6.56859	0.822
6.60283	0.827
6.63708	0.829
6.67132	0.831
6.70557	0.8229
6.73981	0.818
6.77406	0.816
6.8083	0.805
6.84255	0.78
6.87679	0.6746
6.91104	0.4192
6.94528	0.3886
6.97953	0.5546
7.01377	0.6474
7.04802	0.6835
7.08226	0.6752
7.11651	0.6748
7.15075	0.7106
7.185	0.7348
7.21924	0.7287
7.25349	0.701
7.28773	0.6065
7.32198	0.3752
7.35622	0.2143
7.39047	0.4032
7.42471	0.5721
7.45896	0.6794
7.4932	0.7287
7.52745	0.7579
7.56169	0.774
7.59594	0.788
7.63018	0.8026
7.66443	0.81
7.69867	0.815
7.73292	0.8192
7.76716	0.823
7.80141	0.822
7.83565	0.829
7.8699	0.829
7.90414	0.831
7.93839	0.827
7.97263	0.829
8.00688	0.829
8.04112	0.8181
8.07537	0.8154
8.10961	0.8036
8.14386	0.781
8.1781	0.7568
8.21235	0.7264
8.24659	0.6853
8.28084	0.6626
8.31508	0.6372
8.34933	0.6642
8.38357	0.7119
8.41782	0.7483
8.45206	0.7581
8.48631	0.7631
8.52055	0.77
8.5548	0.7683
8.58904	0.7585
8.62329	0.7465
8.65753	0.7468
8.69178	0.7506
8.72602	0.742
8.76027	0.7087
8.79451	0.6922
8.82876	0.7248
8.863	0.7553
8.89725	0.7757
8.93149	0.7825
8.96574	0.789
8.99998	0.786
9.03423	0.787
9.06847	0.7812
9.10272	0.7526
9.13696	0.7105
9.17121	0.7212
9.20545	0.7521
9.2397	0.7616
9.27394	0.7659
9.30819	0.7726
9.34243	0.781
9.37668	0.781
9.41092	0.781
9.44517	0.777
9.47942	0.7768
9.51366	0.772
9.54791	0.7565
9.58215	0.7297
9.6164	0.6884
9.65064	0.6224
9.68489	0.5579
9.71913	0.5669
9.75338	0.608
9.78762	0.5993
9.82187	0.5123
9.85611	0.3926
9.89036	0.1999
9.9246	0.1307
9.95885	0.2082
9.99309	0.3652
10.0273	0.5413
10.0616	0.6138
10.0958	0.6647
10.1301	0.6818
10.1643	0.7056
10.1986	0.7231
10.2328	0.7436
10.2671	0.7625
10.3013	0.7637
10.3355	0.768
10.3698	0.76
10.404	0.7596
10.4383	0.7601
10.4725	0.76
10.5068	0.763
10.541	0.763
10.5753	0.7605
10.6095	0.76
10.6437	0.76
10.678	0.758
10.7122	0.7554
10.7465	0.748
10.7807	0.7422
10.815	0.7317
10.8492	0.727
10.8835	0.7177
10.9177	0.706
10.952	0.701
10.9862	0.6889
11.0204	0.6742
11.0547	0.6604
11.0889	0.6552
11.1232	0.6445
11.1574	0.6326
11.1917	0.6189
11.2259	0.6091
11.2602	0.5968
11.2944	0.5732
11.3286	0.5358
11.3629	0.4958
11.3971	0.4572
11.4314	0.4533
11.4656	0.4689
11.4999	0.5171
11.5341	0.5402
11.5684	0.5508
11.6026	0.562
11.6369	0.563
11.6711	0.5608
11.7053	0.554
11.7396	0.5325
11.7738	0.5047
11.8081	0.4883
11.8423	0.4569
11.8766	0.4301
11.9108	0.4042
11.9451	0.3555
11.9793	0.3336
12.0135	0.2818
12.0478	0.256
12.082	0.2256
12.1163	0.1964
12.1505	0.1903
12.1848	0.181
12.219	0.1851
12.2533	0.192
12.2875	0.2004
12.3218	0.212
12.356	0.2189
12.3902	0.2374
12.4245	0.243
12.4587	0.246
12.493	0.2509
12.5272	0.2617
12.5615	0.267
12.5957	0.27
12.63	0.2735
12.6642	0.2803
12.6984	0.2866
12.7327	0.286
12.7669	0.287
12.8012	0.291
12.8354	0.2915
12.8697	0.2985
12.9039	0.2996
12.9382	0.3
12.9724	0.301
13.0067	0.303
13.0409	0.3001
13.0751	0.3
13.1094	0.305
13.1436	0.3
13.1779	0.315
13.2121	0.313
13.2464	0.3231
13.2806	0.3278
13.3149	0.3326
13.3491	0.3416
13.3833	0.344
13.4176	0.348
13.4518	0.3511
13.4861	0.3561
13.5203	0.365
13.5546	0.37
13.5888	0.374
13.6231	0.379
13.6573	0.3897
13.6916	0.396
13.7258	0.401
13.76	0.4078
13.7943	0.4161
13.8285	0.4277
13.8628	0.439
13.897	0.4466
13.9313	0.4582
13.9655	0.4703
13.9998	0.487
14.034	0.4977
14.0682	0.5162
14.1025	0.5266
14.1367	0.5384
14.171	0.5451
14.2052	0.552
14.2395	0.5625
14.2737	0.5689
14.308	0.575
14.3422	0.577
14.3765	0.5846
14.4107	0.5963
14.4449	0.601
14.4792	0.605
14.5134	0.6078
14.5477	0.6063
14.5819	0.605
14.6162	0.606
14.6504	0.6143
14.6847	0.617
14.7189	0.62
14.7531	0.62
14.7874	0.6192
14.8216	0.6145
14.8559	0.615
14.8901	0.617
14.9244	0.62
14.9586	0.625
14.9929	0.6387
15.0271	0.6462
15.0614	0.6033
15.0956	0.6077
15.1298	0.6173
15.1641	0.622
15.1983	0.6245
15.2326	0.6261
15.2668	0.629
15.3011	0.629
15.3353	0.6195
15.3696	0.62
15.4038	0.6167
