Infrared Spectrum: Cyclopropylamine
Formula: C3 H7 N
CAS: 765-30-0
State: GAS (35 mmHg, N2 ADDED, TOTAL PRESSURE 600 mmHg)
Class: COBLENTZ
Instrument: DOW KBr FOREPRISM-GRATING
Instrument parameters: GRATING CHANGED AT 5.0, 7.5, 15.0 MICRON
Sampling: TRANSMISSION
Path length: 10 CM
Resolution: 2
Origin: DOW CHEMICAL COMPANY
1/CM	TRANSMITTANCE
389	0.5674
398	0.5683
407	0.5783
416	0.6223
425	0.6722
434	0.7317
443	0.7754
452	0.7981
461	0.8162
470	0.8276
479	0.8327
488	0.8351
497	0.8365
506	0.8402
515	0.8352
524	0.8208
533	0.847
542	0.8389
551	0.8717
560	0.8821
569	0.8927
578	0.8981
587	0.8958
596	0.8882
605	0.8765
614	0.8625
623	0.8491
632	0.8354
641	0.8281
650	0.8126
659	0.8253
668	0.7999
677	0.8362
686	0.8348
695	0.8137
704	0.7253
713	0.6085
722	0.3848
731	0.2666
740	0.1217
749	0.0586
758	0.0625
767	0.0013
776	0.0837
785	0.1621
794	0.3577
803	0.5312
812	0.6057
821	0.4996
830	0.6037
839	0.6601
848	0.7156
857	0.7794
866	0.8025
875	0.7747
884	0.7741
893	0.711
902	0.7274
911	0.763
920	0.8099
929	0.8468
938	0.8789
947	0.8879
956	0.8861
965	0.8777
974	0.8604
983	0.833
992	0.7531
1001	0.5845
1010	0.4916
1019	0.487
1028	0.5646
1037	0.5121
1046	0.7401
1055	0.7984
1064	0.8397
1073	0.8581
1082	0.8676
1091	0.8686
1100	0.8693
1109	0.8691
1118	0.8579
1127	0.8543
1136	0.8549
1145	0.8181
1154	0.7907
1163	0.81
1172	0.7757
1181	0.8239
1190	0.8299
1199	0.802
1208	0.7455
1217	0.7372
1226	0.7426
1235	0.7798
1244	0.8115
1253	0.8134
1262	0.8444
1271	0.8297
1280	0.8217
1289	0.805
1298	0.8337
1307	0.8134
1316	0.8472
1325	0.8549
1334	0.8694
1343	0.8052
1352	0.6519
1361	0.4713
1370	0.4412
1379	0.4095
1388	0.4191
1397	0.5556
1406	0.7457
1415	0.795
1424	0.7557
1433	0.7845
1442	0.6435
1451	0.5684
1460	0.5074
1469	0.5549
1478	0.6134
1487	0.7855
1496	0.8808
1505	0.8915
1514	0.857
1523	0.86
1532	0.8819
1541	0.8768
1550	0.8786
1559	0.8656
1568	0.8606
1577	0.8507
1586	0.8224
1595	0.7724
1604	0.6891
1613	0.6183
1622	0.5534
1631	0.5629
1640	0.5858
1649	0.7312
1658	0.781
1667	0.8737
1676	0.8551
1685	0.8404
1694	0.8607
1703	0.8743
1712	0.8882
1721	0.893
1730	0.8645
1739	0.8842
1748	0.8789
1757	0.874
1766	0.8656
1775	0.8655
1784	0.8611
1793	0.8644
1802	0.8809
1811	0.8825
1820	0.8808
1829	0.8768
1838	0.8696
1847	0.8656
1856	0.8615
1865	0.8579
1874	0.8635
1883	0.8655
1892	0.8698
1901	0.8729
1910	0.8713
1919	0.8711
1928	0.8768
1937	0.8795
1946	0.8806
1955	0.8787
1964	0.8817
1973	0.8789
1982	0.876
1991	0.8727
2000	0.8711
2009	0.8704
2018	0.8672
2027	0.861
2036	0.8541
2045	0.8493
2054	0.8471
2063	0.849
2072	0.8534
2081	0.8623
2090	0.8591
2099	0.8596
2108	0.8718
2117	0.872
2126	0.8714
2135	0.8701
2144	0.8693
2153	0.8706
2162	0.8744
2171	0.8777
2180	0.8788
2189	0.8782
2198	0.877
2207	0.8749
2216	0.872
2225	0.8691
2234	0.8666
2243	0.8652
2252	0.8643
2261	0.8643
2270	0.8657
2279	0.8695
2288	0.875
2297	0.8788
2306	0.8787
2315	0.8775
2324	0.8757
2333	0.8739
2342	0.8746
2351	0.8775
2360	0.8788
2369	0.8791
2378	0.879
2387	0.8781
2396	0.8766
2405	0.875
2414	0.8734
2423	0.8719
2432	0.8707
2441	0.8692
2450	0.8676
2459	0.8666
2468	0.8665
2477	0.8665
2486	0.8683
2495	0.8719
2504	0.8735
2513	0.8743
2522	0.874
2531	0.8728
2540	0.8717
2549	0.8709
2558	0.8701
2567	0.8693
2576	0.8686
2585	0.8678
2594	0.8671
2603	0.8668
2612	0.8666
2621	0.8662
2630	0.866
2639	0.8657
2648	0.8655
2657	0.8653
2666	0.8646
2675	0.8634
2684	0.8622
2693	0.8609
2702	0.8585
2711	0.8546
2720	0.8499
2729	0.8462
2738	0.8457
2747	0.848
2756	0.8513
2765	0.8539
2774	0.8561
2783	0.8574
2792	0.8557
2801	0.8509
2810	0.8452
2819	0.8385
2828	0.8322
2837	0.8267
2846	0.823
2855	0.8208
2864	0.8211
2873	0.823
2882	0.8257
2891	0.8273
2900	0.8276
2909	0.8233
2918	0.8114
2927	0.7929
2936	0.7147
2945	0.6178
2954	0.5265
2963	0.4411
2972	0.2477
2981	0.2343
2990	0.3468
2999	0.3461
3008	0.3389
3017	0.3484
3026	0.4111
3035	0.3805
3044	0.5511
3053	0.7141
3062	0.7437
3071	0.6603
3080	0.5694
3089	0.4354
3098	0.5226
3107	0.5633
3116	0.546
3125	0.7327
3134	0.8189
3143	0.8486
3152	0.8573
3161	0.8595
3170	0.8606
3179	0.8616
3188	0.8622
3197	0.8622
3206	0.8621
3215	0.8621
3224	0.8621
3233	0.8621
3242	0.8619
3251	0.8617
3260	0.8615
3269	0.8612
3278	0.8603
3287	0.8594
3296	0.8585
3305	0.8567
3314	0.854
3323	0.8408
3332	0.8283
3341	0.8189
3350	0.7874
3359	0.8225
3368	0.8349
3377	0.8492
3386	0.8462
3395	0.8376
3404	0.8348
3413	0.8413
3422	0.8467
3431	0.8517
3440	0.8564
3449	0.8598
3458	0.8591
3467	0.8583
3476	0.858
3485	0.8583
3494	0.859
3503	0.8615
3512	0.8651
3521	0.8676
3530	0.8688
3539	0.8692
3548	0.8692
3557	0.8684
3566	0.8662
3575	0.8641
3584	0.8622
3593	0.8603
3602	0.8588
3611	0.8557
3620	0.857
3629	0.8669
3638	0.8566
3647	0.8647
3656	0.8666
3665	0.8544
3674	0.8638
3683	0.8711
3692	0.8716
3701	0.87
3710	0.8685
3719	0.8661
3728	0.8627
3737	0.8559
3746	0.8619
3755	0.8683
3764	0.87
3773	0.8703
3782	0.8704
