Infrared Spectrum: Cyclopropylamine
Formula: C 3 H 7 N
CAS: 765-30-0
State: gas
Instrument: HP-GC/MS/IRD
Origin: NIST Mass Spectrometry Data Center
1/CM	ABSORBANCE
550	0.0018298
562	0.0002198
574	0.0001638
586	9.52e-05
598	0.0003318
610	0.000434
622	0.0007616
634	0.0009464
646	0.0012516
658	0.001463
670	0.0019264
682	0.002548
694	0.0037926
706	0.0055748
718	0.0079744
730	0.0102788
742	0.0124572
754	0.0139916
766	0.0112378
778	0.0092274
790	0.0070686
802	0.0050456
814	0.0039872
826	0.0030058
838	0.0022148
850	0.0019012
862	0.00154
874	0.001561
886	0.0016576
898	0.0018228
910	0.0019334
922	0.0018914
934	0.00203
946	0.0011746
958	0.001344
970	0.0015568
982	0.0016366
994	0.0031066
1006	0.0035364
1018	0.0046312
1030	0.0038094
1042	0.0026222
1054	0.0014154
1066	0.0008918
1078	0.0006482
1090	0.0005992
1102	0.0007014
1114	0.000483
1126	0.0004704
1138	0.0006622
1150	0.0006272
1162	0.000812
1174	0.0009758
1186	0.0012754
1198	0.0017542
1210	0.0018466
1222	0.0016786
1234	0.0013342
1246	0.0008148
1258	0.0003262
1270	0.000182
1282	8.54e-05
1294	3.36e-05
1306	0.0002142
1318	0.0005096
1330	0.0011914
1342	0.0025914
1354	0.00399
1366	0.0044338
1378	0.0043274
1390	0.0037212
1402	0.0023646
1414	0.0017752
1426	0.001911
1438	0.002681
1450	0.002723
1462	0.0024248
1474	0.0020174
1486	0.0010528
1498	0.000385
1510	0.0003024
1522	0.000231
1534	0.0002212
1546	0.0003556
1558	0.0005446
1570	0.00084
1582	0.0014952
1594	0.0022162
1606	0.0028084
1618	0.0031402
1630	0.0029064
1642	0.0021952
1654	0.0017206
1666	0.0011438
1678	0.000497
1690	0.0001806
1702	0.000161
1714	0.0001708
1726	0.0001554
1738	0.0001596
1750	0.0001708
1762	0.0001736
1774	0.0001862
1786	0.0001414
1798	0.0001176
1810	4.9e-05
1822	7.98e-05
1834	0.0001022
1846	0.0001302
1858	0.0001652
1870	0.0001512
1882	0.0001414
1894	0.0001246
1906	0.0001078
1918	9.52e-05
1930	3.36e-05
1942	2.8e-05
1954	2.8e-06
1966	2.8e-06
1978	3.36e-05
1990	5.18e-05
2002	8.68e-05
2014	0.0001456
2026	0.0001806
2038	0.0002338
2050	0.0002282
2062	0.0002184
2074	0.0001708
2086	0.0001162
2098	7.7e-05
2110	5.88e-05
2122	6.72e-05
2134	5.88e-05
2146	6.44e-05
2158	6.86e-05
2170	6.86e-05
2182	0.000119
2194	0.0001218
2206	9.8e-05
2218	0.0001274
2230	0.0001736
2242	0.0002282
2254	0.000294
2266	0.0003332
2278	0.000385
2290	0.0003486
2302	0.0002772
2314	0.000245
2326	0.0002184
2338	0.0001876
2350	0.000182
2362	0.0002632
2374	0.0002254
2386	0.0001204
2398	8.12e-05
2410	9.52e-05
2422	0.0001008
2434	0.0001442
2446	0.0001232
2458	0.0001274
2470	0.0001512
2482	0.0001638
2494	0.0001358
2506	0.0001288
2518	0.0001162
2530	0.0001064
2542	0.000112
2554	9.94e-05
2566	0.0001106
2578	0.0001064
2590	0.0001218
2602	0.0001274
2614	0.0001218
2626	0.0001036
2638	0.0001372
2650	0.0001694
2662	0.0001428
2674	0.0001736
2686	0.0001596
2698	0.000182
2710	0.000217
2722	0.0002506
2734	0.0002492
2746	0.0002744
2758	0.0002674
2770	0.0002506
2782	0.000273
2794	0.0002688
2806	0.0003878
2818	0.0005656
2830	0.0007392
2842	0.0009912
2854	0.001106
2866	0.0011242
2878	0.001134
2890	0.0011298
2902	0.0011928
2914	0.0014504
2926	0.001897
2938	0.0027888
2950	0.00392
2962	0.0053284
2974	0.0077532
2986	0.0080164
2998	0.0086184
3010	0.0085204
3022	0.0077252
3034	0.006552
3046	0.0049126
3058	0.0039676
3070	0.0041832
3082	0.004711
3094	0.0053886
3106	0.0040026
3118	0.0029176
3130	0.001512
3142	0.0007364
3154	0.0003136
3166	0.0002072
3178	0.000161
3190	0.0001554
3202	0.000126
3214	0.0001946
3226	0.0001358
3238	0.0001022
3250	0.0001526
3262	0.0001148
3274	6.86e-05
3286	0.0001218
3298	0.0001372
3310	0.0001176
3322	0.0002744
3334	0.0003892
3346	0.000336
3358	0.0002982
3370	0.000322
3382	0.0002548
3394	0.0002352
3406	0.000287
3418	0.0002688
3430	0.0003332
3442	0.000301
3454	0.0002688
3466	0.0002324
3478	0.0002044
3490	0.0002814
3502	0.0001792
3514	0.0001498
3526	0.0001792
3538	8.4e-05
3550	0.0001708
3562	0.000175
3574	0.0001036
3586	0.0001512
3598	0.0001148
3610	0.0001694
3622	0.0001582
3634	0.0001456
3646	0.000126
3658	0.0001316
3670	0.0001946
3682	0.0001932
3694	0.000112
3706	0.0001498
3718	0.0001736
3730	0.0001848
3742	0.0002198
3754	0.0002016
3766	0.0001792
3778	0.0001848
3790	0.0002254
3802	0.00014
3814	0.0001484
3826	0.0002282
3838	0.0002814
