Infrared Spectrum: n-Butyramide
Formula: C4 H9 N O
CAS: 541-35-5
State: SOLID (SPLIT MULL)
Melting point: 114 C
Class: COBLENTZ III
Instrument: DOW KBr FOREPRISM-GRATING
Instrument parameters: BLAZED AT 3.5, 12.0, 20.0 MICRON AND CHANGED AT 5.0, 7.5, 14.9 MICRON
Sampling: TRANSMISSION
Resolution: 2
Origin: DOW CHEMICAL COMPANY
1/CM	TRANSMITTANCE
3814	0.8841
3805	0.8833
3796	0.8824
3787	0.884
3778	0.886
3769	0.8871
3760	0.888
3751	0.8881
3742	0.8883
3733	0.8881
3724	0.8878
3715	0.8868
3706	0.8818
3697	0.8775
3688	0.8803
3679	0.8818
3670	0.882
3661	0.8803
3652	0.8799
3643	0.8801
3634	0.8804
3625	0.8806
3616	0.8809
3607	0.8811
3598	0.8814
3589	0.8816
3580	0.8818
3571	0.8821
3562	0.8823
3553	0.8825
3544	0.8828
3535	0.883
3526	0.8832
3517	0.8811
3508	0.8792
3499	0.8763
3490	0.8728
3481	0.8667
3472	0.8575
3463	0.8447
3454	0.8256
3445	0.8007
3436	0.766
3427	0.7145
3418	0.6422
3409	0.5372
3400	0.3384
3391	0.3007
3382	0.2067
3373	0.1653
3364	0.1538
3355	0.1761
3346	0.2241
3337	0.2847
3328	0.322
3319	0.3509
3310	0.3743
3301	0.3958
3292	0.416
3283	0.4345
3274	0.4504
3265	0.4636
3256	0.4676
3247	0.4589
3238	0.4199
3229	0.376
3220	0.3373
3211	0.3125
3202	0.2958
3193	0.2879
3184	0.2849
3175	0.3035
3166	0.3845
3157	0.4662
3148	0.5283
3139	0.5748
3130	0.6144
3121	0.6415
3112	0.6624
3103	0.6806
3094	0.6987
3085	0.7161
3076	0.7336
3067	0.7475
3058	0.7589
3049	0.7698
3040	0.7792
3031	0.7854
3022	0.7904
3013	0.7937
3004	0.793
2995	0.7831
2986	0.7607
2977	0.7141
2968	0.3542
2959	0.4469
2950	0.6183
2941	0.626
2932	0.5986
2923	0.6868
2914	0.6993
2905	0.7022
2896	0.7314
2887	0.7344
2878	0.6183
2869	0.7045
2860	0.7705
2851	0.793
2842	0.8003
2833	0.8007
2824	0.786
2815	0.7639
2806	0.7651
2797	0.7911
2788	0.8041
2779	0.8087
2770	0.8091
2761	0.8121
2752	0.8223
2743	0.8333
2734	0.8364
2725	0.8387
2716	0.8428
2707	0.8468
2698	0.8477
2689	0.8483
2680	0.85
2671	0.852
2662	0.8549
2653	0.8578
2644	0.8593
2635	0.8604
2626	0.8612
2617	0.862
2608	0.8628
2599	0.8634
2590	0.864
2581	0.8644
2572	0.865
2563	0.8655
2554	0.8658
2545	0.8655
2536	0.8652
2527	0.8649
2518	0.8647
2509	0.8642
2500	0.8639
2491	0.8635
2482	0.8632
2473	0.863
2464	0.8628
2455	0.8625
2446	0.8624
2437	0.8621
2428	0.862
2419	0.8615
2410	0.8611
2401	0.8607
2392	0.8605
2383	0.86
2374	0.8591
2365	0.8577
2356	0.8545
2347	0.851
2338	0.8499
2329	0.8489
2320	0.8485
2311	0.8483
2302	0.8458
2293	0.8439
2284	0.8433
2275	0.8434
2266	0.8458
2257	0.8475
2248	0.8493
2239	0.851
2230	0.8527
2221	0.8545
2212	0.8568
2203	0.8584
2194	0.8587
2185	0.8587
2176	0.8587
2167	0.8591
2158	0.8596
2149	0.8603
2140	0.8614
2131	0.8623
2122	0.8628
2113	0.8631
2104	0.8635
2095	0.8644
2086	0.8655
2077	0.8665
2068	0.8675
2059	0.8683
2050	0.8691
2041	0.8698
2032	0.8703
2023	0.8705
2014	0.8711
2005	0.8708
1996	0.8627
1987	0.8596
1978	0.8628
1969	0.8637
1960	0.8653
1951	0.8644
1942	0.8633
1933	0.8624
1924	0.862
1915	0.8609
1906	0.8611
1897	0.8611
1888	0.8605
1879	0.8604
1870	0.8606
1861	0.8599
1852	0.8575
1843	0.8559
1834	0.8546
1825	0.8536
1816	0.8525
1807	0.851
1798	0.8468
1789	0.8373
1780	0.8351
1771	0.8353
1762	0.8343
1753	0.83
1744	0.8238
1735	0.8141
1726	0.8001
1717	0.779
1708	0.7488
1699	0.6724
1690	0.6267
1681	0.4709
1672	0.2063
1663	0.0953
1654	0.1119
1645	0.1589
1636	0.086
1627	0.1273
1618	0.3454
1609	0.4908
1600	0.6016
1591	0.6582
1582	0.6908
1573	0.7157
1564	0.7322
1555	0.7437
1546	0.7528
1537	0.7571
1528	0.759
1519	0.7575
1510	0.7557
1501	0.7514
1492	0.7424
1483	0.7315
1474	0.7161
1465	0.5595
1456	0.595
1447	0.5725
1438	0.4768
1429	0.3359
1420	0.3525
1411	0.4237
1402	0.5664
1393	0.6307
1384	0.6568
1375	0.6647
1366	0.6857
1357	0.6904
1348	0.6372
1339	0.5341
1330	0.6496
1321	0.6756
1312	0.6811
1303	0.6811
1294	0.6987
1285	0.7182
1276	0.7222
1267	0.6661
1258	0.5164
1249	0.6834
1240	0.7375
1231	0.7721
1222	0.7874
1213	0.7969
1204	0.8049
1195	0.8131
1186	0.8234
1177	0.8321
1168	0.827
1159	0.8228
1150	0.7671
1141	0.531
1132	0.6687
1123	0.7736
1114	0.8168
1105	0.8312
1096	0.8308
1087	0.8253
1078	0.8393
1069	0.8456
1060	0.8525
1051	0.858
1042	0.8618
1033	0.8521
1024	0.8631
1015	0.8671
1006	0.8675
997	0.8671
988	0.8667
979	0.8668
970	0.8666
961	0.8663
952	0.8664
943	0.8654
934	0.8638
925	0.8589
916	0.8537
907	0.8488
898	0.8435
889	0.8384
880	0.8287
871	0.8137
862	0.7645
853	0.7907
844	0.8112
835	0.8146
826	0.8055
817	0.7915
808	0.7849
799	0.7892
790	0.7985
781	0.8024
772	0.8015
763	0.7928
754	0.7798
745	0.7518
736	0.7331
727	0.6938
718	0.6348
709	0.6268
700	0.6378
691	0.6465
682	0.6458
673	0.6297
664	0.6077
655	0.5901
646	0.5896
637	0.6137
628	0.6519
619	0.6908
610	0.7162
601	0.7268
592	0.7331
583	0.754
574	0.773
565	0.7901
556	0.8045
547	0.8158
538	0.8232
529	0.8249
520	0.8265
511	0.8268
502	0.8256
493	0.8196
484	0.8032
475	0.7625
466	0.6569
457	0.684
448	0.704
