Infrared Spectrum: Acetone
Formula: C 3 H 6 O
CAS: 67-64-1
State: gas
Origin: Sadtler Research Labs Under US-EPA Contract
1/CM	ABSORBANCE
450	0.00314636
462	0.00464088
474	0.00762992
486	0.0158891
498	0.0523869
510	0.105482
522	0.0968292
534	0.0772431
546	0.0667815
558	0.0202154
570	0.00621406
582	0.00385429
594	0.0109336
606	0.0065287
618	0.00558479
630	0.00196647
642	0.00888847
654	0.00762992
666	0.00582077
678	0.00888847
690	0.00818054
702	0.00755126
714	0.00778724
726	0.0092031
738	0.00888847
750	0.0128214
762	0.0145519
774	0.016833
786	0.0195074
798	0.0124281
810	0.0100684
822	0.00755126
834	0.00880981
846	0.0111696
858	0.013844
870	0.0233617
882	0.0294185
894	0.0385429
906	0.0417679
918	0.0382283
930	0.0288679
942	0.0217099
954	0.0165184
966	0.0146306
978	0.0126641
990	0.0117202
1002	0.0105403
1014	0.00967506
1026	0.0104616
1038	0.0114842
1050	0.0125854
1062	0.0139226
1074	0.0164397
1086	0.0211593
1098	0.0247776
1110	0.0256428
1122	0.0238337
1134	0.0199007
1146	0.017069
1158	0.020058
1170	0.0404307
1182	0.130574
1194	0.329188
1206	0.410836
1218	0.480213
1230	0.426332
1242	0.171319
1254	0.0292611
1266	0.0152598
1278	0.0153385
1290	0.0195861
1302	0.0265867
1314	0.0438131
1326	0.08857
1338	0.205693
1350	0.363405
1362	0.424365
1374	0.441434
1386	0.316838
1398	0.140249
1410	0.106819
1422	0.11555
1434	0.119011
1446	0.115707
1458	0.0956493
1470	0.0731529
1482	0.0573424
1494	0.0441277
1506	0.040588
1518	0.0388575
1530	0.0401161
1542	0.0401947
1554	0.0387789
1566	0.0353179
1578	0.0307557
1590	0.0254069
1602	0.020766
1614	0.016597
1626	0.0153385
1638	0.0147092
1650	0.0162824
1662	0.0222605
1674	0.0355539
1686	0.0746474
1698	0.192007
1710	0.426174
1722	0.625654
1734	0.727596
1746	0.726259
1758	0.558636
1770	0.306927
1782	0.14898
1794	0.0862103
1806	0.0490046
1818	0.0291038
1830	0.0178556
1842	0.0129001
1854	0.00936042
1866	0.00684333
1878	0.00645004
1890	0.00566345
1902	0.00487686
1914	0.00424759
1926	0.00464088
1938	0.0044049
1950	0.00464088
1962	0.00511283
1974	0.00550613
1986	0.00503418
1998	0.00416893
2010	0.00353965
2022	0.00338234
2034	0.00283172
2046	0.00259575
2058	0.00228111
2070	0.00322502
2082	0.00432624
2094	0.00645004
2106	0.00975372
2118	0.0110909
2130	0.0114842
2142	0.0118775
2154	0.00880981
2166	0.00511283
2178	0.00338234
2190	0.00291038
2202	0.00353965
2214	0.00377563
2226	0.0044049
2238	0.00519149
2250	0.00519149
2262	0.00511283
2274	0.00416893
2286	0.00330368
2298	0.00291038
2310	0.003461
2322	0.00409027
2334	0.0030677
2346	0.00228111
2358	0.00401161
2370	0.000314636
2382	0.00125854
2394	0.00220245
2406	0.00220245
2418	0.00314636
2430	0.00353965
2442	0.00259575
2454	0.00259575
2466	0.00212379
2478	0.00204513
2490	0.00196647
2502	0.00243843
2514	0.00251709
2526	0.00251709
2538	0.00353965
2550	0.00401161
2562	0.0047982
2574	0.00574211
2586	0.00503418
2598	0.0030677
2610	0.00251709
2622	0.00157318
2634	0.00196647
2646	0.00259575
2658	0.00212379
2670	0.00157318
2682	0.00141586
2694	0.00078659
2706	0.00149452
2718	0.00141586
2730	0.0013372
2742	0.00141586
2754	0.00149452
2766	0.00243843
2778	0.00291038
2790	0.00487686
2802	0.00487686
2814	0.00629272
2826	0.00928176
2838	0.0122708
2850	0.0157318
2862	0.0176983
2874	0.020058
2886	0.0216312
2898	0.0298118
2910	0.048218
2922	0.0651297
2934	0.0725236
2946	0.0847157
2958	0.0774791
2970	0.11964
2982	0.0676467
2994	0.0888847
3006	0.0929749
3018	0.0904578
3030	0.0825919
3042	0.0643431
3054	0.0473527
3066	0.0457009
3078	0.0417679
3090	0.0359472
3102	0.0273733
3114	0.0193501
3126	0.0123495
3138	0.00865249
3150	0.00597808
3162	0.00456222
3174	0.00369697
3186	0.00298904
3198	0.00353965
3210	0.00188782
3222	0.00267441
3234	0.00322502
3246	0.00125854
3258	0.00157318
3270	0.00078659
3282	0.000943908
3294	0.00212379
3306	0.00149452
3318	0.00188782
3330	0.00369697
3342	0.00165184
3354	0.00180916
3366	0.0013372
3378	0.00377563
3390	0.00361831
3402	0.00401161
3414	0.00778724
3426	0.0116415
3438	0.0162038
3450	0.0187208
3462	0.0194288
3474	0.0162038
3486	0.0123495
3498	0.00621406
3510	0.0047982
3522	0.00235977
3534	0.00401161
3546	0.00432624
3558	0.00330368
3570	0.0030677
3582	0.00251709
3594	0.00235977
3606	0.00283172
3618	0.00259575
3630	0.00511283
3642	0.00409027
3654	0.00464088
3666	0.00416893
3678	0.0044049
3690	0.00385429
3702	0.00424759
3714	0.003461
3726	0.00471954
3738	0.00519149
3750	0.00401161
3762	0.00456222
3774	0.00385429
3786	0.00353965
3798	0.00487686
3810	0.00471954
3822	0.00495552
3834	0.00645004
3846	0.00605674
3858	0.00550613
3870	0.00448356
3882	0.00298904
3894	0.00597808
3906	0.0044049
3918	0.00401161
3930	0.00267441
3942	0.00369697
3954	0.00574211
3966	0.0047982
