Infrared Spectrum: Acetone
Formula: C3 H6 O
CAS: 67-64-1
State: GAS (100 mmHg, N2 ADDED, TOTAL PRESSURE 600 mmHg)
Class: COBLENTZ
Instrument: DOW KBr FOREPRISM-GRATING
Instrument parameters: GRATING CHANGED AT 5.0, 7.5, 15.0 MICRON
Sampling: TRANSMISSION
Path length: 5 CM
Resolution: 2
Origin: DOW CHEMICAL COMPANY
1/CM	TRANSMITTANCE
450	0.9318
459	0.914
468	0.8885
477	0.855
486	0.8584
495	0.8599
504	0.7411
513	0.441
522	0.4139
531	0.3194
540	0.3962
549	0.5472
558	0.834
567	0.8898
576	0.9045
585	0.9086
594	0.8978
603	0.9116
612	0.9127
621	0.9133
630	0.9143
639	0.9138
648	0.9128
657	0.9112
666	0.9278
675	0.8966
684	0.8686
693	0.8643
702	0.8691
711	0.8851
720	0.8677
729	0.8549
738	0.8543
747	0.8532
756	0.8433
765	0.8349
774	0.8371
783	0.8474
792	0.8634
801	0.8946
810	0.9167
819	0.9163
828	0.9149
837	0.9117
846	0.9053
855	0.8883
864	0.8403
873	0.7649
882	0.7076
891	0.6707
900	0.6655
909	0.6855
918	0.733
927	0.7638
936	0.8428
945	0.8661
954	0.8748
963	0.8767
972	0.8741
981	0.8753
990	0.8845
999	0.8945
1008	0.8992
1017	0.9038
1026	0.903
1035	0.8968
1044	0.8907
1053	0.8835
1062	0.8698
1071	0.8488
1080	0.8392
1089	0.6621
1098	0.8032
1107	0.7947
1116	0.8316
1125	0.8645
1134	0.8842
1143	0.8918
1152	0.8904
1161	0.8764
1170	0.8331
1179	0.7157
1188	0.3426
1197	0.0412
1206	0.0348
1215	0.0183
1224	0.0296
1233	0.0526
1242	0.5455
1251	0.7987
1260	0.8689
1269	0.8761
1278	0.8723
1287	0.8556
1296	0.8389
1305	0.8028
1314	0.7525
1323	0.6469
1332	0.4351
1341	0.1754
1350	0.0442
1359	0.0327
1368	0.0201
1377	0.0309
1386	0.1387
1395	0.3868
1404	0.3989
1413	0.3453
1422	0.2938
1431	0.2802
1440	0.2765
1449	0.3259
1458	0.397
1467	0.4901
1476	0.5507
1485	0.6494
1494	0.684
1503	0.7122
1512	0.7047
1521	0.7055
1530	0.7092
1539	0.7231
1548	0.7208
1557	0.7489
1566	0.7551
1575	0.7817
1584	0.8025
1593	0.8212
1602	0.8398
1611	0.8493
1620	0.8487
1629	0.8428
1638	0.8345
1647	0.8235
1656	0.8132
1665	0.789
1674	0.7478
1683	0.6849
1692	0.5624
1701	0.2571
1710	0.0513
1719	0.0104
1728	0.009
1737	0.0096
1746	0.0109
1755	0.0173
1764	0.0609
1773	0.1295
1782	0.2591
1791	0.4309
1800	0.5868
1809	0.7276
1818	0.7841
1827	0.8101
1836	0.8309
1845	0.8499
1854	0.8598
1863	0.8662
1872	0.8709
1881	0.8747
1890	0.8795
1899	0.8813
1908	0.8821
1917	0.8815
1926	0.8804
1935	0.8796
1944	0.8791
1953	0.8791
1962	0.8771
1971	0.8744
1980	0.8749
1989	0.8763
1998	0.882
2007	0.8773
2016	0.8843
2025	0.8841
2034	0.8836
2043	0.8818
2052	0.8798
2061	0.8777
2070	0.8755
2079	0.8699
2088	0.859
2097	0.8491
2106	0.8387
2115	0.8284
2124	0.8215
2133	0.8234
2142	0.8268
2151	0.837
2160	0.8527
2169	0.8673
2178	0.8789
2187	0.881
2196	0.8804
2205	0.8785
2214	0.8764
2223	0.8739
2232	0.8712
2241	0.8678
2250	0.8668
2259	0.868
2268	0.8732
2277	0.879
2286	0.8842
2295	0.8885
2304	0.8931
2313	0.8983
2322	0.9037
2331	0.9078
2340	0.9066
2349	0.9146
2358	0.9182
2367	0.9086
2376	0.8959
2385	0.8882
2394	0.8836
2403	0.8815
2412	0.8801
2421	0.879
2430	0.8791
2439	0.8803
2448	0.8825
2457	0.8871
2466	0.8889
2475	0.8888
2484	0.8888
2493	0.8888
2502	0.8888
2511	0.8887
2520	0.8882
2529	0.8853
2538	0.8801
2547	0.8701
2556	0.8649
2565	0.8638
2574	0.865
2583	0.8715
2592	0.8809
2601	0.8912
2610	0.8909
2619	0.8905
2628	0.8899
2637	0.8888
2646	0.8878
2655	0.8868
2664	0.8858
2673	0.8846
2682	0.8835
2691	0.8824
2700	0.8815
2709	0.8807
2718	0.8803
2727	0.8818
2736	0.8825
2745	0.8784
2754	0.8721
2763	0.8675
2772	0.863
2781	0.8586
2790	0.8537
2799	0.8488
2808	0.8452
2817	0.8396
2826	0.8206
2835	0.7987
2844	0.7835
2853	0.7756
2862	0.7753
2871	0.7812
2880	0.7841
2889	0.768
2898	0.7215
2907	0.6269
2916	0.5429
2925	0.5102
2934	0.4457
2943	0.4365
2952	0.48
2961	0.3422
2970	0.3632
2979	0.483
2988	0.4373
2997	0.3825
3006	0.3753
3015	0.3573
3024	0.3824
3033	0.4959
3042	0.5999
3051	0.6425
3060	0.6494
3069	0.6595
3078	0.6712
3087	0.6871
3096	0.7115
3105	0.7719
3114	0.8118
3123	0.8361
3132	0.8453
3141	0.8503
3150	0.8541
3159	0.8567
3168	0.8587
3177	0.8606
3186	0.8621
3195	0.8637
3204	0.865
3213	0.8661
3222	0.8671
3231	0.8682
3240	0.8684
3249	0.8684
3258	0.8684
3267	0.8682
3276	0.868
3285	0.8677
3294	0.8675
3303	0.8668
3312	0.866
3321	0.8651
3330	0.8642
3339	0.8628
3348	0.8615
3357	0.8599
3366	0.8585
3375	0.8549
3384	0.8509
3393	0.8454
3402	0.8393
3411	0.8275
3420	0.8072
3429	0.7842
3438	0.7526
3447	0.7337
3456	0.7361
3465	0.7822
3474	0.8202
3483	0.8373
3492	0.8521
3501	0.8601
3510	0.8666
3519	0.8717
3528	0.8746
3537	0.8771
3546	0.879
3555	0.8805
3564	0.8821
3573	0.8834
3582	0.8838
3591	0.8841
3600	0.8842
3609	0.8838
3618	0.884
3627	0.8858
3636	0.8852
3645	0.8835
3654	0.8821
3663	0.8791
3672	0.8775
3681	0.8791
3690	0.8843
3699	0.8877
3708	0.8874
3717	0.8862
3726	0.8844
3735	0.8825
3744	0.8806
3753	0.8783
3762	0.8763
3771	0.8745
3780	0.8731
3789	0.8716
3798	0.8699
