Infrared Spectrum: TERT-BUTYLAMINE
Formula: C4 H11 N
CAS: 75-64-9
State: LIQUID
Boiling point: 44-45 C
Class: COBLENTZ
Instrument: Not specified, most likely a prism, grating, or hybrid spectrometer.
Sampling: TRANSMISSION
Path length: 0.003 CM
Resolution: 4
Origin: WYANDOTTE CHEMICALS CORP., WYANDOTTE, MICHIGAN, USA
MICROMETERS	TRANSMITTANCE
2.068	0.972
2.10882	0.971
2.14964	0.966
2.19045	0.955
2.23127	0.926
2.27209	0.918
2.31291	0.918
2.35372	0.921
2.39454	0.942
2.43536	0.942
2.47618	0.943
2.51699	0.943
2.55781	0.942
2.59863	0.94
2.63945	0.952
2.68026	0.954
2.72108	0.937
2.7619	0.93
2.80272	0.889
2.84353	0.848
2.88435	0.814
2.92517	0.775
2.96599	0.731
3.0068	0.587
3.04762	0.626
3.08844	0.599
3.12926	0.638
3.17007	0.638
3.21089	0.711
3.25171	0.741
3.29253	0.726
3.33335	0.448
3.37416	0.062
3.41498	0.151
3.4558	0.229
3.49662	0.237
3.53743	0.587
3.57825	0.736
3.61907	0.799
3.65989	0.814
3.7007	0.813
3.74152	0.831
3.78234	0.859
3.82316	0.865
3.86397	0.862
3.90479	0.876
3.94561	0.879
3.98643	0.877
4.02724	0.879
4.06806	0.865
4.10888	0.876
4.1497	0.876
4.19051	0.876
4.23133	0.872
4.27215	0.884
4.31297	0.911
4.35378	0.921
4.3946	0.899
4.43542	0.881
4.47624	0.879
4.51706	0.886
4.55787	0.899
4.59869	0.898
4.63951	0.899
4.68033	0.906
4.72114	0.904
4.76196	0.901
4.80278	0.882
4.8436	0.887
4.88441	0.879
4.92523	0.881
4.96605	0.886
5.00687	0.884
5.04768	0.882
5.0885	0.879
5.12932	0.882
5.17014	0.884
5.21095	0.882
5.25177	0.879
5.29259	0.881
5.33341	0.881
5.37422	0.877
5.41504	0.876
5.45586	0.874
5.49668	0.869
5.53749	0.86
5.57831	0.862
5.61913	0.86
5.65995	0.86
5.70077	0.852
5.74158	0.852
5.7824	0.845
5.82322	0.828
5.86404	0.825
5.90485	0.799
5.94567	0.765
5.98649	0.735
6.02731	0.701
6.06812	0.636
6.10894	0.577
6.14976	0.507
6.19058	0.477
6.23139	0.485
6.27221	0.522
6.31303	0.577
6.35385	0.607
6.39466	0.648
6.43548	0.677
6.4763	0.706
6.51712	0.728
6.55793	0.687
6.59875	0.706
6.63957	0.689
6.68039	0.626
6.7212	0.499
6.76202	0.312
6.80284	0.414
6.84366	0.531
6.88448	0.614
6.92529	0.667
6.96611	0.716
7.00693	0.741
7.04775	0.74
7.08856	0.723
7.12938	0.667
7.1702	0.443
7.21102	0.49
7.25183	0.438
7.29265	0.152
7.33347	0.208
7.37429	0.529
7.4151	0.679
7.45592	0.733
7.49674	0.747
7.53756	0.721
7.57837	0.702
7.61919	0.726
7.66001	0.735
7.70083	0.74
7.74164	0.735
7.78246	0.719
7.82328	0.682
7.8641	0.651
7.90491	0.587
7.94573	0.458
7.98655	0.275
8.02737	0.202
8.06819	0.281
8.109	0.307
8.14982	0.219
8.19064	0.205
8.23146	0.298
8.27227	0.417
8.31309	0.504
8.35391	0.568
8.39473	0.614
8.43554	0.691
8.47636	0.726
8.51718	0.741
8.558	0.758
8.59881	0.777
8.63963	0.784
8.68045	0.789
8.72127	0.789
8.76208	0.777
8.8029	0.762
8.84372	0.747
8.88454	0.723
8.92535	0.707
8.96617	0.707
9.00699	0.738
9.04781	0.762
9.08862	0.77
9.12944	0.772
9.17026	0.772
9.21108	0.769
9.2519	0.765
9.29271	0.764
9.33353	0.76
9.37435	0.757
9.41517	0.738
9.45598	0.721
9.4968	0.689
9.53762	0.636
9.57844	0.58
9.61925	0.529
9.66007	0.57
9.70089	0.657
9.74171	0.702
9.78252	0.728
9.82334	0.735
9.86416	0.735
9.90498	0.724
9.94579	0.704
9.98661	0.706
10.0274	0.731
10.0682	0.74
10.1091	0.747
10.1499	0.747
10.1907	0.738
10.2315	0.724
10.2723	0.714
10.3132	0.697
10.354	0.68
10.3948	0.66
10.4356	0.64
10.4764	0.616
10.5172	0.595
10.5581	0.585
10.5989	0.585
10.6397	0.602
10.6805	0.636
10.7213	0.657
10.7621	0.65
10.803	0.602
10.8438	0.572
10.8846	0.539
10.9254	0.514
10.9662	0.485
11.0071	0.46
11.0479	0.438
11.0887	0.404
11.1295	0.371
11.1703	0.341
11.2111	0.31
11.252	0.297
11.2928	0.273
11.3336	0.264
11.3744	0.251
11.4152	0.241
11.456	0.229
11.4969	0.217
11.5377	0.21
11.5785	0.203
11.6193	0.195
11.6601	0.193
11.701	0.191
11.7418	0.186
11.7826	0.181
11.8234	0.181
11.8642	0.181
11.905	0.188
11.9459	0.193
11.9867	0.193
12.0275	0.19
12.0683	0.2
12.1091	0.207
12.1499	0.212
12.1908	0.222
12.2316	0.241
12.2724	0.259
12.3132	0.273
12.354	0.288
12.3948	0.324
12.4357	0.356
12.4765	0.387
12.5173	0.412
12.5581	0.436
12.5989	0.456
12.6398	0.48
12.6806	0.502
12.7214	0.531
12.7622	0.553
12.803	0.573
12.8438	0.592
12.8847	0.606
12.9255	0.619
12.9663	0.631
13.0071	0.641
13.0479	0.65
13.0887	0.655
13.1296	0.662
13.1704	0.663
13.2112	0.668
13.252	0.668
13.2928	0.662
13.3337	0.648
13.3745	0.599
13.4153	0.511
13.4561	0.478
13.4969	0.543
13.5377	0.607
13.5786	0.648
13.6194	0.677
13.6602	0.691
13.701	0.702
13.7418	0.707
13.7826	0.713
13.8235	0.721
13.8643	0.721
13.9051	0.726
13.9459	0.728
13.9867	0.728
14.0276	0.731
14.0684	0.728
14.1092	0.733
14.15	0.731
14.1908	0.73
14.2316	0.731
14.2725	0.736
14.3133	0.736
14.3541	0.736
14.3949	0.736
14.4357	0.74
14.4765	0.738
14.5174	0.738
14.5582	0.74
14.599	0.736
14.6398	0.738
14.6806	0.735
14.7215	0.736
14.7623	0.736
14.8031	0.74
14.8439	0.73
14.8847	0.733
14.9255	0.733
14.9664	0.73
15.0072	0.716
15.048	0.713
15.0888	0.718
15.1296	0.724
15.1704	0.723
15.2113	0.723
15.2521	0.714
15.2929	0.714
15.3337	0.711
15.3745	0.706
15.4154	0.706
15.4562	0.706
15.497	0.706
15.5378	0.702
15.5786	0.701
15.6194	0.694
15.6603	0.691
15.7011	0.687
15.7419	0.685
15.7827	0.684
15.8235	0.682
15.8643	0.68
15.9052	0.68
15.946	0.677
15.9868	0.668
