Infrared Spectrum: 2-Propanamine, 2-methyl-
Formula: C 4 H 11 N
CAS: 75-64-9
State: gas
Origin: Sadtler Research Labs Under US-EPA Contract
1/CM	ABSORBANCE
450	0.0191074
462	0.0184704
474	0.0116236
486	0.00467069
498	0.00371532
510	0.00206996
522	0.00228227
534	0.00334379
546	0.00413993
558	0.00472376
570	0.00456454
582	0.00615682
594	0.00615682
606	0.00541375
618	0.00695296
630	0.00806755
642	0.00944753
654	0.0127913
666	0.0132159
678	0.0157105
690	0.0184174
702	0.0222919
714	0.0265911
726	0.0355078
738	0.04262
750	0.041187
762	0.049573
774	0.0748902
786	0.139961
798	0.206996
810	0.269414
822	0.168782
834	0.0951653
846	0.0334379
858	0.0190543
870	0.0133752
882	0.0102437
894	0.00918215
906	0.0081737
918	0.0100844
930	0.0123136
942	0.0148613
954	0.00981906
966	0.0050953
978	0.00291918
990	0.00275995
1002	0.00451146
1014	0.00806755
1026	0.0092883
1038	0.00912907
1050	0.00700603
1062	0.00382147
1074	0.00191074
1086	0.00291918
1098	0.0050953
1110	0.00865139
1122	0.00822678
1134	0.00711218
1146	0.00610374
1158	0.00886369
1170	0.0127382
1182	0.020965
1194	0.0326417
1206	0.0532352
1218	0.0927238
1230	0.115546
1242	0.11268
1254	0.0609843
1266	0.0299879
1278	0.0144367
1290	0.0116767
1302	0.0122075
1314	0.00918215
1326	0.00610374
1338	0.0122075
1350	0.0546152
1362	0.0808878
1374	0.107585
1386	0.0841255
1398	0.0211773
1410	0.0156043
1422	0.00737756
1434	0.011146
1446	0.0251049
1458	0.0341279
1470	0.0521206
1482	0.0388516
1494	0.0292449
1506	0.0169312
1518	0.011146
1530	0.0107214
1542	0.00668758
1554	0.010456
1566	0.0119952
1578	0.0125259
1590	0.0196381
1602	0.0309964
1614	0.0449554
1626	0.0542967
1638	0.0394355
1650	0.0240434
1662	0.0109867
1674	0.00605066
1686	0.00175151
1698	0.00196381
1710	0.00313148
1722	0.00318456
1734	0.00180458
1746	0.00307841
1758	0.00201689
1770	0.000955368
1782	0.000849216
1794	0.000477684
1806	0.00122075
1818	0.00116767
1830	0.00100844
1842	0.00100844
1854	0.00185766
1866	0.00127382
1878	0.000849216
1890	0.000477684
1902	0.000902292
1914	0.000955368
1926	0.00100844
1938	0.0015392
1950	0.000849216
1962	0.00100844
1974	0.00159228
1986	0.0011146
1998	0.00116767
2010	0.0011146
2022	0.00164536
2034	0.00217612
2046	0.00196381
2058	0.00233534
2070	0.00180458
2082	0.00127382
2094	0.00191074
2106	0.00196381
2118	0.00191074
2130	0.00143305
2142	0.00100844
2154	0.00116767
2166	0.00106152
2178	0.00100844
2190	0.00106152
2202	0.00106152
2214	0.00106152
2226	0.0011146
2238	0.0011146
2250	0.00159228
2262	0.0015392
2274	0.00217612
2286	0.00217612
2298	0.00159228
2310	0.00143305
2322	0.00106152
2334	0.000636912
2346	0.0011146
2358	0.00053076
2370	0.0011146
2382	0.00159228
2394	0.00222919
2406	0.00159228
2418	0.00159228
2430	0.00159228
2442	0.00159228
2454	0.0011146
2466	0.00159228
2478	0.00122075
2490	0.00159228
2502	0.00159228
2514	0.00164536
2526	0.00164536
2538	0.00228227
2550	0.00212304
2562	0.00228227
2574	0.00233534
2586	0.00233534
2598	0.00233534
2610	0.00297226
2622	0.00297226
2634	0.00297226
2646	0.00249457
2658	0.00307841
2670	0.00307841
2682	0.00413993
2694	0.00424608
2706	0.00525452
2718	0.00631604
2730	0.00780217
2742	0.00737756
2754	0.00711218
2766	0.00536068
2778	0.00583836
2790	0.0064222
2802	0.00859831
2814	0.0110929
2826	0.0150205
2838	0.0197973
2850	0.0330663
2862	0.0689457
2874	0.109177
2886	0.119846
2898	0.13338
2910	0.132
2922	0.147392
2934	0.181042
2946	0.299242
2958	0.424661
2970	0.486548
2982	0.413197
2994	0.166818
3006	0.0522268
3018	0.0107744
3030	0.00589144
3042	0.00482992
3054	0.00445838
3066	0.00445838
3078	0.00493607
3090	0.00498914
3102	0.00498914
3114	0.0050953
3126	0.00557298
3138	0.00589144
3150	0.00652835
3162	0.00716526
3174	0.0077491
3186	0.00827986
3198	0.0077491
3210	0.00780217
3222	0.00833293
3234	0.00838601
3246	0.00711218
3258	0.00546683
3270	0.00435223
3282	0.00435223
3294	0.00557298
3306	0.00886369
3318	0.010456
3330	0.012579
3342	0.0095006
3354	0.00610374
3366	0.004193
3378	0.00408685
3390	0.00514837
3402	0.00520145
3414	0.00482992
3426	0.004193
3438	0.00371532
3450	0.00318456
3462	0.00260072
3474	0.00270688
3486	0.00270688
3498	0.00291918
3510	0.00275995
3522	0.00291918
3534	0.00291918
3546	0.00233534
3558	0.00297226
3570	0.0015392
3582	0.00297226
3594	0.00249457
3606	0.00254765
3618	0.0024415
3630	0.000849216
3642	0.00260072
3654	0.00212304
3666	0.00318456
3678	0.00185766
3690	0.00217612
3702	0.0026538
3714	0.00275995
3726	0.00275995
3738	0.00206996
3750	0.00233534
3762	0.00387455
3774	0.00387455
3786	0.00387455
3798	0.0039807
3810	0.00403378
3822	0.00403378
3834	0.00403378
3846	0.00408685
3858	0.00408685
3870	0.00413993
3882	0.00413993
3894	0.00413993
3906	0.00467069
3918	0.00424608
3930	0.00472376
3942	0.00477684
3954	0.00143305
3966	0.00175151
