Infrared Spectrum: 1,4-Dichloro-2-butyne
Formula: C 4 H 4 Cl 2
CAS: 821-10-3
State: gas
Instrument: HP-GC/MS/IRD
Origin: NIST Mass Spectrometry Data Center
1/CM	ABSORBANCE
550	0.0010812
562	0.0006466
574	0.0003922
586	0.0004134
598	0.0001802
610	9.54e-05
622	0.0003074
634	0.000689
646	0.0013038
658	0.0027242
670	0.005406
682	0.0102714
694	0.0201294
706	0.0522898
718	0.0788746
730	0.034026
742	0.013568
754	0.006678
766	0.0043142
778	0.0037418
790	0.0035828
802	0.0033708
814	0.0023108
826	0.0010706
838	0.0005194
850	0.0002544
862	9.54e-05
874	5.3e-05
886	9.54e-05
898	0.000159
910	0.0001908
922	0.0002014
934	0.0001378
946	2.12e-05
958	4.24e-05
970	1.06e-05
982	0
994	5.3e-05
1006	8.48e-05
1018	0.0001166
1030	0.0001696
1042	0.0002014
1054	0.0002756
1066	0.0004664
1078	0.0008056
1090	0.000795
1102	0.0007738
1114	0.0010706
1126	0.0019292
1138	0.0049078
1150	0.0160802
1162	0.0240514
1174	0.0069748
1186	0.002014
1198	0.0016642
1210	0.0022472
1222	0.0039008
1234	0.0080348
1246	0.023532
1258	0.0830616
1270	0.0959936
1282	0.0209244
1294	0.006201
1306	0.002226
1318	0.00106
1330	0.0006784
1342	0.0007526
1354	0.0008692
1366	0.000848
1378	0.0007738
1390	0.0008904
1402	0.0012826
1414	0.0020776
1426	0.0027348
1438	0.0028408
1450	0.0023532
1462	0.0015582
1474	0.0008586
1486	0.0004134
1498	0.0002756
1510	0.0003392
1522	0.0003074
1534	0.0002014
1546	0.0001802
1558	0.0001908
1570	0.0001166
1582	0.0001378
1594	0.0001908
1606	0.0001696
1618	0.0001484
1630	8.48e-05
1642	5.3e-05
1654	9.54e-05
1666	0
1678	0
1690	5.3e-05
1702	0.0001908
1714	0.000106
1726	2.12e-05
1738	7.42e-05
1750	0.0001166
1762	6.36e-05
1774	6.36e-05
1786	7.42e-05
1798	0.0002862
1810	0.000477
1822	0.0002226
1834	4.24e-05
1846	6.36e-05
1858	2.12e-05
1870	7.42e-05
1882	5.3e-05
1894	7.42e-05
1906	9.54e-05
1918	8.48e-05
1930	0.0001378
1942	0.0002332
1954	0.0002226
1966	0.000106
1978	8.48e-05
1990	4.24e-05
2002	3.18e-05
2014	3.18e-05
2026	5.3e-05
2038	7.42e-05
2050	0.0001802
2062	0.0001908
2074	0.000212
2086	0.0002014
2098	0.0001272
2110	9.54e-05
2122	7.42e-05
2134	9.54e-05
2146	0.0001484
2158	0.0001484
2170	0.0001272
2182	8.48e-05
2194	6.36e-05
2206	5.3e-05
2218	7.42e-05
2230	5.3e-05
2242	6.36e-05
2254	5.3e-05
2266	4.24e-05
2278	5.3e-05
2290	0.000106
2302	0.0002226
2314	0.000424
2326	0.0005724
2338	0.0005618
2350	0.0004028
2362	0.0002862
2374	0.0001166
2386	7.42e-05
2398	8.48e-05
2410	0.0001166
2422	0.000159
2434	0.0001484
2446	7.42e-05
2458	4.24e-05
2470	3.18e-05
2482	1.06e-05
2494	4.24e-05
2506	0.000106
2518	0.0001908
2530	0.000159
2542	2.12e-05
2554	2.12e-05
2566	3.18e-05
2578	7.42e-05
2590	0.0001484
2602	0.000212
2614	9.54e-05
2626	7.42e-05
2638	6.36e-05
2650	8.48e-05
2662	0.000159
2674	0.0002544
2686	0.0004134
2698	0.000848
2710	0.0008798
2722	0.0003604
2734	0.000212
2746	0.0001484
2758	0.0001272
2770	0.0001272
2782	0.000159
2794	0.0001484
2806	0.0002014
2818	0.000318
2830	0.0005088
2842	0.0008162
2854	0.0011342
2866	0.0012296
2878	0.0009752
2890	0.0006678
2902	0.0004346
2914	0.0006466
2926	0.0012614
2938	0.0029044
2950	0.0052894
2962	0.0068264
2974	0.0067204
2986	0.0049714
2998	0.0025652
3010	0.0010706
3022	0.0005406
3034	0.000371
3046	0.0003074
3058	0.0002862
3070	0.0002544
3082	0.0002438
3094	0.0001484
3106	0.0001802
3118	0.0001484
3130	0.000159
3142	0.0001484
3154	0.0001908
3166	0.0001378
3178	0.0001272
3190	0.000159
3202	0.0001378
3214	0.000159
3226	0.0001378
3238	0.0001696
3250	0.0001272
3262	8.48e-05
3274	0.0001166
3286	5.3e-05
3298	8.48e-05
3310	0.0001484
3322	8.48e-05
3334	0.0001272
3346	9.54e-05
3358	6.36e-05
3370	0.000106
3382	0.0001378
3394	0.000106
3406	5.3e-05
3418	0.0001166
3430	0.0001166
3442	0.0001378
3454	0.000106
3466	0.0001272
3478	0.0002014
3490	0.0002014
3502	0.000265
3514	0.0002438
3526	0.0001272
3538	7.42e-05
3550	0.000106
3562	0.0001378
3574	0.0001696
3586	0.0001908
3598	0.0001484
3610	0.0001484
3622	5.3e-05
3634	2.12e-05
3646	7.42e-05
3658	9.54e-05
3670	0.0001908
3682	0.0002014
3694	0.0002862
3706	0.0002332
3718	0.0001484
3730	0.000106
3742	0.000159
3754	0.000106
3766	0.0001484
3778	9.54e-05
3790	0.0001272
3802	6.36e-05
3814	4.24e-05
3826	0.000106
3838	0.0001166
