Infrared Spectrum: 2-PROPANONE, 1,3-DIHYDROXY-
Formula: C3 H6 O3
CAS: 96-26-4
State: SOLID (1% KBr DISC)
Class: COBLENTZ III
Instrument: CARY 90 (GRATING)
Instrument parameters: ORDER CHANGES: 3000, 2000, 1200 CM^-^1
Sampling: TRANSMISSION
Resolution: 2
Origin: WESTERN REGIONAL RES. USDA
1/CM	TRANSMITTANCE
4014	0.8521
4005	0.8528
3996	0.8534
3987	0.8535
3978	0.8534
3969	0.8537
3960	0.8542
3951	0.8546
3942	0.8548
3933	0.8549
3924	0.8545
3915	0.8535
3906	0.8528
3897	0.8525
3888	0.8525
3879	0.8521
3870	0.8517
3861	0.8512
3852	0.8505
3843	0.8491
3834	0.8478
3825	0.8464
3816	0.845
3807	0.8434
3798	0.8411
3789	0.8386
3780	0.8363
3771	0.8338
3762	0.8313
3753	0.8277
3744	0.8242
3735	0.8207
3726	0.8168
3717	0.8112
3708	0.8058
3699	0.8001
3690	0.7932
3681	0.7857
3672	0.7758
3663	0.7657
3654	0.7543
3645	0.7428
3636	0.7195
3627	0.6918
3618	0.6668
3609	0.6422
3600	0.6149
3591	0.5793
3582	0.545
3573	0.5053
3564	0.4641
3555	0.4289
3546	0.3941
3537	0.3564
3528	0.3147
3519	0.2625
3510	0.2248
3501	0.1813
3492	0.1349
3483	0.0884
3474	0.0419
3465	0.0436
3456	0.0578
3447	0.0593
3438	0.0558
3429	0.0501
3420	0.0449
3411	0.0419
3402	0.0511
3393	0.0742
3384	0.1022
3375	0.1238
3366	0.1445
3357	0.167
3348	0.1877
3339	0.2033
3330	0.2159
3321	0.2268
3312	0.2366
3303	0.2462
3294	0.2553
3285	0.2642
3276	0.2721
3267	0.2791
3258	0.2837
3249	0.2854
3240	0.2823
3231	0.2713
3222	0.257
3213	0.2408
3204	0.2196
3195	0.1934
3186	0.1696
3177	0.1478
3168	0.1248
3159	0.1211
3150	0.122
3141	0.1346
3132	0.1734
3123	0.2127
3114	0.2593
3105	0.3073
3096	0.3484
3087	0.3812
3078	0.4106
3069	0.4557
3060	0.498
3051	0.5307
3042	0.5488
3033	0.5631
3024	0.5765
3015	0.5866
3006	0.5903
2997	0.4175
2988	0.4405
2979	0.5153
2970	0.555
2961	0.4959
2952	0.3278
2943	0.3312
2934	0.3748
2925	0.4207
2916	0.4551
2907	0.4569
2898	0.4543
2889	0.4587
2880	0.4945
2871	0.5315
2862	0.5782
2853	0.5938
2844	0.5917
2835	0.5929
2826	0.6112
2817	0.6382
2808	0.658
2799	0.6767
2790	0.6953
2781	0.7088
2772	0.7221
2763	0.7338
2754	0.7431
2745	0.7522
2736	0.7608
2727	0.7692
2718	0.7778
2709	0.7874
2700	0.8014
2691	0.8093
2682	0.8019
2673	0.7894
2664	0.7751
2655	0.7708
2646	0.7803
2637	0.7893
2628	0.7982
2619	0.8058
2610	0.8128
2601	0.8196
2592	0.8254
2583	0.8311
2574	0.837
2565	0.8382
2556	0.8335
2547	0.8287
2538	0.8278
2529	0.833
2520	0.8381
2511	0.8431
2502	0.8482
2493	0.8532
2484	0.8581
2475	0.8627
2466	0.867
2457	0.8706
2448	0.8742
2439	0.8774
2430	0.876
2421	0.8721
2412	0.8708
2403	0.8712
2394	0.8736
2385	0.8782
2376	0.8828
2367	0.8866
2358	0.89
2349	0.8889
2340	0.8868
2331	0.8843
2322	0.8838
2313	0.8843
2304	0.8865
2295	0.8891
2286	0.8918
2277	0.894
2268	0.8957
2259	0.8971
2250	0.8978
2241	0.8984
2232	0.899
2223	0.8991
2214	0.8992
2205	0.8992
2196	0.899
2187	0.8985
2178	0.8982
2169	0.8975
2160	0.8965
2151	0.8951
2142	0.8911
2133	0.8858
2124	0.8806
2115	0.8768
2106	0.8768
2097	0.8768
2088	0.8767
2079	0.8764
2070	0.8761
2061	0.8758
2052	0.8758
2043	0.8758
2034	0.8768
2025	0.8778
2016	0.8795
2007	0.8806
1998	0.8901
1989	0.9077
1980	0.9068
1971	0.9065
1962	0.9085
1953	0.9104
1944	0.9088
1935	0.9045
1926	0.9025
1917	0.9018
1908	0.9024
1899	0.9028
1890	0.9032
1881	0.9033
1872	0.9032
1863	0.9025
1854	0.902
1845	0.9004
1836	0.8987
1827	0.897
1818	0.8953
1809	0.8939
1800	0.8925
1791	0.8899
1782	0.8868
1773	0.8818
1764	0.8761
1755	0.8586
1746	0.8083
1737	0.6821
1728	0.5615
1719	0.6032
1710	0.7044
1701	0.7862
1692	0.8244
1683	0.8384
1674	0.841
1665	0.8358
1656	0.8239
1647	0.799
1638	0.7791
1629	0.7286
1620	0.7558
1611	0.7597
1602	0.7741
1593	0.7893
1584	0.798
1575	0.8014
1566	0.8015
1557	0.8003
1548	0.7944
1539	0.786
1530	0.7693
1521	0.748
1512	0.723
1503	0.6801
1494	0.5893
1485	0.485
1476	0.3434
1467	0.3108
1458	0.3476
1449	0.3568
1440	0.3966
1431	0.4795
1422	0.4453
1413	0.4809
1404	0.5405
1395	0.5458
1386	0.5207
1377	0.5242
1368	0.5821
1359	0.5923
1350	0.598
1341	0.6031
1332	0.537
1323	0.3547
1314	0.2847
1305	0.3146
1296	0.1929
1287	0.4377
1278	0.4671
1269	0.2347
1260	0.4887
1251	0.5427
1242	0.4785
1233	0.5264
1224	0.5608
1215	0.3766
1206	0.1669
1197	0.4037
1188	0.5321
1179	0.4153
1170	0.3092
1161	0.3874
1152	0.273
1143	0.2414
1134	0.4538
1125	0.4751
1116	0.312
1107	0.1062
1098	0.135
1089	0.155
1080	0.1464
1071	0.0303
1062	0.0349
1053	0.0889
1044	0.1928
1035	0.3577
1026	0.4346
1017	0.4701
1008	0.4376
999	0.154
990	0.1774
981	0.4215
972	0.308
963	0.064
954	0.3389
945	0.293
936	0.4498
927	0.5848
918	0.6185
909	0.6189
900	0.6371
891	0.6174
882	0.2927
873	0.4408
864	0.2089
855	0.4946
846	0.6265
837	0.6432
828	0.6181
819	0.5654
810	0.0639
801	0.3712
792	0.5747
783	0.5947
774	0.5707
765	0.4039
756	0.4126
747	0.4789
738	0.296
729	0.2457
720	0.176
711	0.3577
702	0.4723
693	0.4742
684	0.4474
675	0.411
666	0.364
657	0.3152
648	0.259
639	0.2139
630	0.2171
621	0.2539
612	0.2906
603	0.3124
594	0.3062
585	0.2767
576	0.2627
567	0.2407
558	0.2524
549	0.2561
540	0.2634
531	0.358
522	0.3968
513	0.4286
504	0.4478
495	0.37
486	0.452
