Infrared Spectrum: Ethane, 1,1-difluoro-
Formula: C 2 H 4 F 2
CAS: 75-37-6
State: gas
Origin: Sadtler Research Labs Under US-EPA Contract
1/CM	ABSORBANCE
450	0.00295917
462	0.0130009
474	0.0130495
486	0.015475
498	0.0079558
510	0.0057243
522	0.00315322
534	0.0048511
546	0.00480259
558	0.00664601
570	0.015475
582	0.00717963
594	0.00543323
606	0.00383237
618	0.00407492
630	0.00111575
642	0.00276513
654	0.00271662
666	0.00276513
678	0.00281364
690	0.00160086
702	0.00164937
714	0.00232853
726	0.00145533
738	0.00247406
750	0.0013098
762	0.00184342
774	0.00271662
786	0.002183
798	0.00150384
810	0.00198895
822	0.00261959
834	0.00320173
846	0.0061609
858	0.00727665
870	0.0122733
882	0.00936262
894	0.010818
906	0.0189193
918	0.0360437
930	0.0541383
942	0.0599596
954	0.0588438
966	0.0380811
978	0.0158631
990	0.00625792
1002	0.00329875
1014	0.00363832
1026	0.00383237
1038	0.00494812
1050	0.0057243
1062	0.00669452
1074	0.00863496
1086	0.0140682
1098	0.024304
1110	0.0625307
1122	0.213448
1134	0.440334
1146	0.284857
1158	0.0516157
1170	0.02867
1182	0.0123703
1194	0.00650047
1206	0.00320173
1218	0.00247406
1230	0.00271662
1242	0.00276513
1254	0.00286215
1266	0.0026681
1278	0.00237704
1290	0.00213448
1302	0.00232853
1314	0.00291066
1326	0.00402641
1338	0.00674303
1350	0.0140682
1362	0.0203746
1374	0.0305619
1386	0.0361892
1398	0.0657809
1410	0.0689341
1422	0.0497238
1434	0.0429807
1446	0.0136316
1458	0.0114001
1470	0.00538472
1482	0.00198895
1494	0.00203746
1506	0.00179491
1518	0.000776176
1530	0.00145533
1542	0.0013098
1554	0.000824687
1566	0.00126129
1578	0.00135831
1590	0.00097022
1602	0.00160086
1614	0.00145533
1626	0.00164937
1638	0.00121277
1650	0.00101873
1662	0.00101873
1674	0.00111575
1686	0.000824687
1698	0.00116426
1710	0.00106724
1722	0.00121277
1734	0.00106724
1746	0.000776176
1758	0.000582132
1770	0.00106724
1782	0.00111575
1794	0.00150384
1806	0.00160086
1818	0.00135831
1830	0.00126129
1842	0.0013098
1854	0.00145533
1866	0.00145533
1878	0.00150384
1890	0.00106724
1902	0.0013098
1914	0.00106724
1926	0.00111575
1938	0.00126129
1950	0.000921709
1962	0.00140682
1974	0.00160086
1986	0.00208597
1998	0.00295917
2010	0.00252257
2022	0.00145533
2034	0.00184342
2046	0.00164937
2058	0.00194044
2070	0.00223151
2082	0.00194044
2094	0.0013098
2106	0.00155235
2118	0.00097022
2130	0.000873198
2142	0.000824687
2154	0.000630643
2166	0.000776176
2178	0.000727665
2190	0.00048511
2202	0.000727665
2214	0.00106724
2226	0.000873198
2238	0.0013098
2250	0.00164937
2262	0.00208597
2274	0.00150384
2286	0.00179491
2298	0.0017464
2310	0.00116426
2322	0.000921709
2334	0.000679154
2346	0.000388088
2358	0.000727665
2370	0.00135831
2382	0.000727665
2394	0.000145533
2406	0.00097022
2418	0.000582132
2430	0.000533621
2442	0.000776176
2454	0.000630643
2466	0.000727665
2478	0.00116426
2490	0.00116426
2502	0.00101873
2514	0.00097022
2526	0.000921709
2538	0.00101873
2550	0.000921709
2562	0.000679154
2574	0.000582132
2586	0.000776176
2598	0.000727665
2610	0.000582132
2622	0.000582132
2634	0.000533621
2646	0.000824687
2658	0.000727665
2670	0.00121277
2682	0.00106724
2694	0.002183
2706	0.00155235
2718	0.00140682
2730	0.00106724
2742	0.00116426
2754	0.0013098
2766	0.000921709
2778	0.00140682
2790	0.00111575
2802	0.00179491
2814	0.00160086
2826	0.0013098
2838	0.0017464
2850	0.000921709
2862	0.00101873
2874	0.00194044
2886	0.00160086
2898	0.0017464
2910	0.00242555
2922	0.00247406
2934	0.00557876
2946	0.0141652
2958	0.0160571
2970	0.0186282
2982	0.00965369
2994	0.030853
3006	0.0292036
3018	0.0414769
3030	0.0163967
3042	0.00994475
3054	0.00480259
3066	0.00150384
3078	0.000776176
3090	0.00203746
3102	0.000582132
3114	0.00116426
3126	0.00150384
3138	0.00111575
3150	0.00121277
3162	0.00150384
3174	0.00048511
3186	0.00140682
3198	0.0013098
3210	0.00126129
3222	0.00126129
3234	0.000921709
3246	0.000873198
3258	0.00184342
3270	0.000776176
3282	0.000921709
3294	0.00179491
3306	0.00097022
3318	0.000776176
3330	0.00101873
3342	0.00048511
3354	0.00135831
3366	0.00126129
3378	0.00101873
3390	0.00150384
3402	0.00126129
3414	0.00097022
3426	0.00155235
3438	0.00101873
3450	0.000727665
3462	0.00126129
3474	0.00106724
3486	0.0017464
3498	0.00111575
3510	0.0013098
3522	0.000873198
3534	0.00135831
3546	0.000727665
3558	0.00164937
3570	0.000242555
3582	0.00160086
3594	0.000824687
3606	0.000582132
3618	0.00145533
3630	0.000679154
3642	0.00194044
3654	0.000873198
3666	0.000776176
3678	0.000776176
3690	0.00150384
3702	0.00126129
3714	0.0017464
3726	0.00106724
3738	0.000582132
3750	0.000242555
3762	0.00097022
3774	0.00145533
3786	0.00198895
3798	0.00203746
3810	0.00145533
3822	0.00252257
3834	0.00295917
3846	0.00203746
3858	0.0017464
3870	0.00247406
3882	0.00179491
3894	0.00121277
3906	0.00145533
3918	0.00184342
3930	0.00189193
3942	0.00213448
3954	0.00228002
3966	0.000630643
