Infrared Spectrum: 2-CHLORO-1-BUTENE
Formula: C4 H7 Cl
CAS: 2211-70-3
Class: COBLENTZ
Instrument: Not specified, most likely a prism, grating, or hybrid spectrometer.
Sampling: TRANSMISSION
Path length: 0.0025 CM
Resolution: 4
Origin: W.T. BOLLETER
MICROMETERS	TRANSMITTANCE
14.511	0.273
14.5811	0.246
14.6511	0.156
14.7212	0.097
14.7913	0.062
14.8613	0.055
14.9314	0.053
15.0015	0.058
15.0715	0.065
15.1416	0.113
15.2117	0.159
15.2817	0.213
15.3518	0.252
15.4219	0.268
15.4919	0.262
15.562	0.234
15.632	0.197
15.7021	0.156
15.7722	0.119
15.8422	0.092
15.9123	0.063
15.9824	0.06
16.0524	0.053
16.1225	0.047
16.1926	0.047
16.2626	0.049
16.3327	0.051
16.4028	0.055
16.4728	0.062
16.5429	0.078
16.613	0.11
16.683	0.149
16.7531	0.206
16.8232	0.269
16.8932	0.332
16.9633	0.383
17.0334	0.445
17.1034	0.472
17.1735	0.488
17.2436	0.49
17.3136	0.474
17.3837	0.451
17.4537	0.404
17.5238	0.341
17.5939	0.271
17.6639	0.204
17.734	0.138
17.8041	0.101
17.8741	0.078
17.9442	0.072
18.0143	0.097
18.0843	0.127
18.1544	0.182
18.2245	0.259
18.2945	0.323
18.3646	0.383
18.4347	0.435
18.5047	0.474
18.5748	0.499
18.6449	0.509
18.7149	0.509
18.785	0.488
18.8551	0.463
18.9251	0.449
18.9952	0.47
19.0653	0.5
19.1353	0.557
19.2054	0.619
19.2755	0.657
19.3455	0.69
19.4156	0.719
19.4856	0.735
19.5557	0.751
19.6258	0.761
19.6958	0.769
19.7659	0.774
19.836	0.779
19.906	0.783
19.9761	0.785
20.0462	0.79
20.1162	0.792
20.1863	0.792
20.2564	0.788
20.3264	0.786
20.3965	0.783
20.4666	0.781
20.5366	0.781
20.6067	0.781
20.6768	0.779
20.7468	0.774
20.8169	0.77
20.887	0.769
20.957	0.767
21.0271	0.763
21.0972	0.76
21.1672	0.76
21.2373	0.756
21.3074	0.751
21.3774	0.747
21.4475	0.74
21.5175	0.735
21.5876	0.728
21.6577	0.717
21.7277	0.708
21.7978	0.692
21.8679	0.68
21.9379	0.664
22.008	0.644
22.0781	0.628
22.1481	0.611
22.2182	0.591
22.2883	0.563
22.3583	0.541
22.4284	0.513
22.4985	0.476
22.5685	0.44
22.6386	0.404
22.7087	0.348
22.7787	0.314
22.8488	0.278
22.9189	0.246
22.9889	0.222
23.059	0.207
23.1291	0.204
23.1991	0.204
23.2692	0.209
23.3392	0.218
23.4093	0.223
23.4794	0.238
23.5494	0.257
23.6195	0.284
23.6896	0.316
23.7596	0.351
23.8297	0.396
23.8998	0.449
23.9698	0.479
24.0399	0.516
24.11	0.552
24.18	0.596
24.2501	0.618
24.3202	0.637
24.3902	0.657
24.4603	0.669
24.5304	0.676
24.6004	0.683
24.6705	0.687
24.7406	0.689
24.8106	0.69
24.8807	0.694
24.9508	0.696
25.0208	0.689
25.0909	0.664
25.161	0.628
25.231	0.602
25.3011	0.541
25.3711	0.484
25.4412	0.449
25.5113	0.431
25.5813	0.426
25.6514	0.435
25.7215	0.467
25.7915	0.5
25.8616	0.527
25.9317	0.55
26.0017	0.575
26.0718	0.598
26.1419	0.605
26.2119	0.612
26.282	0.609
26.3521	0.602
26.4221	0.591
26.4922	0.57
26.5623	0.538
26.6323	0.506
26.7024	0.468
26.7725	0.431
26.8425	0.401
26.9126	0.369
26.9827	0.348
27.0527	0.339
27.1228	0.341
27.1929	0.348
27.2629	0.36
27.333	0.367
27.403	0.38
27.4731	0.39
27.5432	0.396
27.6132	0.404
27.6833	0.42
27.7534	0.431
27.8234	0.458
27.8935	0.486
27.9636	0.509
28.0336	0.545
28.1037	0.584
28.1738	0.625
28.2438	0.65
28.3139	0.674
28.384	0.705
28.454	0.731
28.5241	0.753
28.5942	0.769
28.6642	0.786
28.7343	0.801
28.8044	0.811
28.8744	0.824
28.9445	0.834
29.0146	0.838
29.0846	0.841
29.1547	0.852
29.2247	0.863
29.2948	0.866
29.3649	0.87
29.4349	0.875
29.505	0.879
29.5751	0.88
29.6451	0.884
29.7152	0.884
29.7853	0.888
29.8553	0.889
29.9254	0.889
29.9955	0.891
30.0655	0.891
30.1356	0.891
30.2057	0.891
30.2757	0.893
30.3458	0.893
30.4159	0.893
30.4859	0.893
30.556	0.893
30.6261	0.895
30.6961	0.891
30.7662	0.889
30.8363	0.888
30.9063	0.886
30.9764	0.884
31.0465	0.888
31.1165	0.889
31.1866	0.891
31.2566	0.891
31.3267	0.891
31.3968	0.891
31.4668	0.886
31.5369	0.882
31.607	0.88
31.677	0.88
31.7471	0.88
31.8172	0.879
31.8872	0.877
31.9573	0.877
32.0274	0.877
32.0974	0.873
32.1675	0.87
32.2376	0.866
32.3076	0.866
32.3777	0.865
32.4478	0.863
32.5178	0.861
32.5879	0.859
32.658	0.856
32.728	0.854
32.7981	0.854
32.8682	0.85
32.9382	0.847
33.0083	0.84
33.0783	0.834
33.1484	0.831
33.2185	0.827
33.2885	0.825
33.3586	0.824
33.4287	0.822
33.4987	0.82
33.5688	0.817
33.6389	0.813
33.7089	0.809
33.779	0.806
33.8491	0.802
33.9191	0.799
33.9892	0.793
34.0593	0.786
34.1293	0.781
34.1994	0.777
34.2695	0.772
34.3395	0.767
34.4096	0.761
34.4797	0.754
34.5497	0.749
34.6198	0.744
34.6899	0.738
34.7599	0.733
34.83	0.726
34.9001	0.717
34.9701	0.714
35.0402	0.706
35.1102	0.699
35.1803	0.692
35.2504	0.685
35.3204	0.678
35.3905	0.673
35.4606	0.657
35.5306	0.641
35.6007	0.637
35.6708	0.63
35.7408	0.625
35.8109	0.621
35.881	0.614
35.951	0.611
36.0211	0.609
36.0912	0.605
36.1612	0.602
36.2313	0.598
36.3014	0.589
36.3714	0.579
36.4415	0.563
36.5116	0.552
36.5816	0.541
36.6517	0.515
36.7218	0.509
36.7918	0.507
36.8619	0.504
36.932	0.502
