Infrared Spectrum: 1,1,1,2-Tetrachloroethane
Formula: C 2 H 2 Cl 4
CAS: 630-20-6
State: gas
Origin: EPA-IR VAPOR PHASE LIBRARY
1/CM	ABSORBANCE
549.8	0.027516
559.445	0.017226
569.09	0.002706
578.734	0.0008237
588.379	0.0007757
598.024	0.0004683
607.669	0.001206
617.313	0.0010707
626.958	0.0009143
636.603	0.0007691
646.248	0.001176
655.893	0.002166
665.537	0.002116
675.182	0.002646
684.827	0.005246
694.472	0.014206
704.116	0.033056
713.761	0.063086
723.406	0.110706
733.051	0.133806
742.695	0.129066
752.34	0.122106
761.985	0.073026
771.63	0.020436
781.275	0.004906
790.919	0.006946
800.564	0.018776
810.209	0.036366
819.854	0.040196
829.498	0.024996
839.143	0.009956
848.788	0.006246
858.433	0.005146
868.078	0.003576
877.722	0.002346
887.367	0.001936
897.012	0.001976
906.657	0.002156
916.301	0.002876
925.946	0.004276
935.591	0.008106
945.236	0.021066
954.88	0.046476
964.525	0.055166
974.17	0.026236
983.815	0.003856
993.46	0.001746
1003.1	0.001556
1012.75	0.001896
1022.39	0.003346
1032.04	0.006796
1041.68	0.010476
1051.33	0.010916
1060.97	0.006256
1070.62	0.002086
1080.26	0.001316
1089.91	0.0004934
1099.55	0.0010803
1109.2	0.001236
1118.84	0.0007191
1128.49	0.0005516
1138.13	0.0007238
1147.78	0.0003274
1157.42	0.0002713
1167.07	0.0008716
1176.71	0.000466
1186.36	0.002666
1196	0.008546
1205.64	0.014156
1215.29	0.008556
1224.93	0.002006
1234.58	0
1244.22	0.0005655
1253.87	0.001196
1263.51	0.002586
1273.16	0.007196
1282.8	0.010016
1292.45	0.006626
1302.09	0.001746
1311.74	0.0005038
1321.38	0.0003612
1331.03	0.00018488
1340.67	0.00016196
1350.32	0.0001339
1359.96	0.0001791
1369.61	0.00016009
1379.25	0.00014351
1388.9	0.00023929
1398.54	0.0006111
1408.18	0.002226
1417.83	0.006476
1427.47	0.010176
1437.12	0.006576
1446.76	0.002376
1456.41	0.0010453
1466.05	0.0005298
1475.7	0.0004862
1485.34	0.0003722
1494.99	0.0003864
1504.63	0.000491
1514.28	0.0004981
1523.92	0.0004309
1533.57	0.0005215
1543.21	0.0005065
1552.86	0.0004423
1562.5	0.0003256
1572.15	0.0003269
1581.79	0.0002896
1591.44	0.0003457
1601.08	0.0002771
1610.73	0.0003462
1620.37	0.00023007
1630.01	0.00022766
1639.66	0.0001338
1649.3	0.0001871
1658.95	0.0002472
1668.59	0.000254
1678.24	0.0001804
1687.88	0.00021752
1697.53	0.00016224
1707.17	0.00015676
1716.82	0.00018166
1726.46	0.000152646
1736.11	0.00016294
1745.75	0.0002568
1755.4	0.0003302
1765.04	0.0003025
1774.69	0.0003195
1784.33	0.00021501
1793.98	0.00017688
1803.62	0.00018215
1813.27	0.00017066
1822.91	0.0002516
1832.55	0.00019612
1842.2	0.00017453
1851.84	0.00017328
1861.49	0.0001065
1871.13	9.07e-05
1880.78	0.00018625
1890.42	0.00015795
1900.07	0.000152557
1909.71	0.0001188
1919.36	0.0001311
1929	0.000216
1938.65	0.00022598
1948.29	0.00018295
1957.94	0.0001238
1967.58	0.00021046
1977.23	0.00023095
1986.87	0.0002638
1996.52	0.00019306
2006.16	0.00021196
2015.81	8.74e-05
2025.45	0.00022635
2035.1	0.0002036
2044.74	0.00017441
2054.38	0.00024121
2064.03	0.0002998
2073.67	0.0003677
2083.32	0.0003514
2092.96	0.0003761
2102.61	0.0003362
2112.25	0.0002688
2121.9	0.000284
2131.54	0.00021793
2141.19	0.0003815
2150.83	0.000298
2160.48	0.000497
2170.12	0.0003565
2179.77	0.00024051
2189.41	0.00023645
2199.06	0.0002636
2208.7	0.0002599
2218.35	0.0001264
2227.99	0.00016694
2237.64	0.0002793
2247.28	0.0002896
2256.92	0.00022812
2266.57	0.00024348
2276.21	0.000152638
2285.86	0.00013904
2295.5	0.00018878
2305.15	0.00021996
2314.79	0.00021601
2324.44	0.00023617
2334.08	0.0003725
2343.73	0.0002997
2353.37	0.000302
2363.02	0.0003147
2372.66	0.0004112
2382.31	0.0003822
2391.95	0.0003262
2401.6	0.0002932
2411.24	0.0003322
2420.89	0.0003519
2430.53	0.0002819
2440.18	0.00022321
2449.82	0.0003151
2459.47	0.0003036
2469.11	0.0003997
2478.75	0.0004504
2488.4	0.0002477
2498.04	0.0002344
2507.69	0.00022597
2517.33	0.0003535
2526.98	0.0002462
2536.62	0.0003086
2546.27	0.0002657
2555.91	0.000254
2565.56	0.0002908
2575.2	0.00014254
2584.85	0.0003171
2594.49	0.0002021
2604.14	0.0002598
2613.78	0.00019062
2623.43	0.0002648
2633.07	0.0002565
2642.72	0.0002797
2652.36	0.00020736
2662.01	0.0002907
2671.65	0.000335
2681.29	0.0003517
2690.94	0.000345
2700.58	0.0004507
2710.23	0.0005315
2719.87	0.0002961
2729.52	0.00020887
2739.16	0.0003564
2748.81	0.0003013
2758.45	0.0002844
2768.1	0.0002597
2777.74	0.0003916
2787.39	0.0004193
2797.03	0.0004641
2806.68	0.0003768
2816.32	0.0003885
2825.97	0.0007258
2835.61	0.0007911
2845.26	0.0007391
2854.9	0.0003776
2864.55	0.00022174
2874.19	0.0004391
2883.84	0.0004436
2893.48	0.0002963
2903.12	0.0003049
2912.77	0.0003095
2922.41	0.0003316
2932.06	0.000349
2941.7	0.0005689
2951.35	0.0010309
2960.99	0.003196
2970.64	0.006546
2980.28	0.005926
2989.93	0.002056
2999.57	0.00063
3009.22	0.0006695
3018.86	0.0003749
3028.51	0.0003835
3038.15	0.0002718
3047.8	0.0003613
3057.44	0.0005507
3067.09	0.0004077
3076.73	0.0004123
3086.38	0.000276
3096.02	0.0005068
3105.67	0.0003921
3115.31	0.0004564
3124.95	0.0004038
3134.6	0.0005722
3144.24	0.0004735
3153.89	0.0004583
3163.53	0.000367
3173.18	0.0003773
3182.82	0.00018261
3192.47	0.0006695
3202.11	0.000503
3211.76	0.0005471
3221.4	0.0006402
3231.05	0.0003573
3240.69	0.0002562
3250.34	0.0004414
3259.98	0.0003973
3269.63	0.0006446
3279.27	0.0004834
3288.92	0.0006281
3298.56	0.0004852
3308.21	0.0004445
3317.85	0.0004955
3327.49	0.0004673
3337.14	0.0004061
3346.78	0.0004435
3356.43	0.0006147
3366.07	0.0005291
3375.72	0.0005551
3385.36	0.0006101
3395.01	0.0003462
3404.65	0.0003356
3414.3	0.000378
3423.94	0.0004267
3433.59	0.0004202
3443.23	0.0004135
3452.88	0.0003388
3462.52	0.0003355
3472.17	0.00038
3481.81	0.0003509
3491.46	0.0002834
3501.1	0.0005022
3510.75	0.000343
3520.39	0.0005206
3530.04	0.0003411
3539.68	0.0006445
3549.32	0.0002871
3558.97	0.0005192
3568.61	0.0002832
3578.26	0.0003866
3587.9	0.000371
3597.55	0.0005579
3607.19	0.0003521
3616.84	0.0003054
3626.48	0.0004106
3636.13	0.0003701
3645.77	0.0004095
3655.42	0.0006147
3665.06	0.00019511
3674.71	0.0003732
3684.35	0.0004909
3694	0.0003895
3703.64	0.0005564
3713.29	0.0004404
3722.93	0.000499
3732.58	0.0005641
3742.22	0.0006582
3751.86	0.0004976
3761.51	0.0003763
3771.15	0.0006928
3780.8	0.0006875
3790.44	0.000628
3800.09	0.000671
3809.73	0.0006254
3819.38	0.0004554
3829.02	0.0004161
3838.67	0.00023818
3848.31	0.0006255
3857.96	0.000478
3867.6	0.000563
3877.25	0.0004065
3886.89	0.0004782
3896.54	0.000262
3906.18	0.0004635
3915.83	0.0006061
3925.47	0.0006218
3935.12	0.0005663
3944.76	0.000844
3954.41	0.0005386
3964.05	0.0004281
3973.69	0.0007285
3983.34	0.0006948
3992.98	0.0006751
