Infrared Spectrum: ETHANE, 1,1,1,2-TETRACHLORO-
Formula: C2 H2 Cl4
CAS: 630-20-6
State: NEAT
Boiling point: 139 C
Class: COBLENTZ III
Instrument: PERKIN-ELMER 283
Sampling: TRANSMISSION
Path length: KBr PLATES
Resolution: 4
Origin: DOW CHEMICAL COMPANY
1/CM	TRANSMITTANCE
206.165	0.004
216.488	0.001
226.81	0
237.133	0.002
247.455	0.005
257.778	0.01
268.101	0.01
278.423	0.01
288.746	0.006
299.068	0.009
309.391	0.019
319.714	0.034
330.036	0.052
340.359	0.0969
350.681	0.16
361.004	0.2509
371.327	0.312
381.649	0.35
391.972	0.478
402.294	0.559
412.617	0.628
422.94	0.679
433.262	0.701
443.585	0.711
453.907	0.75
464.23	0.78
474.553	0.822
484.875	0.834
495.198	0.861
505.52	0.884
515.843	0.881
526.166	0.847
536.488	0.6452
546.811	0.29
557.133	0.835
567.456	0.822
577.779	0.798
588.101	0.796
598.424	0.8
608.746	0.802
619.069	0.811
629.392	0.81
639.714	0.807
650.037	0.812
660.359	0.818
670.682	0.805
681.005	0.746
691.327	0.621
701.65	0.363
711.973	0.061
722.295	0.092
732.618	0.2352
742.94	0.0311
753.263	0.072
763.586	0.5927
773.908	0.788
784.231	0.797
794.553	0.717
804.876	0.394
815.199	0.129
825.521	0.735
835.844	0.804
846.166	0.846
856.489	0.898
866.812	0.914
877.134	0.92
887.457	0.92
897.779	0.921
908.102	0.919
918.425	0.879
928.747	0.819
939.07	0.7301
949.392	0.3623
959.715	0.039
970.038	0.851
980.36	0.9
990.683	0.919
1001.01	0.922
1011.33	0.909
1021.65	0.902
1031.97	0.879
1042.3	0.7521
1052.62	0.5049
1062.94	0.892
1073.26	0.925
1083.59	0.932
1093.91	0.936
1104.23	0.931
1114.55	0.923
1124.88	0.929
1135.2	0.93
1145.52	0.938
1155.84	0.931
1166.17	0.926
1176.49	0.911
1186.81	0.864
1197.13	0.5431
1207.46	0.865
1217.78	0.923
1228.1	0.932
1238.43	0.926
1248.75	0.906
1259.07	0.881
1269.39	0.854
1279.72	0.6809
1290.04	0.875
1300.36	0.936
1310.68	0.942
1321.01	0.947
1331.33	0.95
1341.65	0.95
1351.97	0.945
1362.3	0.943
1372.62	0.94
1382.94	0.934
1393.26	0.926
1403.59	0.9
1413.91	0.647
1424.23	0.844
1434.55	0.889
1444.88	0.929
1455.2	0.937
1465.52	0.939
1475.85	0.945
1486.17	0.943
1496.49	0.943
1506.81	0.942
1517.14	0.937
1527.46	0.937
1537.78	0.94
1548.1	0.942
1558.43	0.946
1568.75	0.946
1579.07	0.947
1589.39	0.943
1599.72	0.942
1610.04	0.94
1620.36	0.939
1630.68	0.938
1641.01	0.94
1651.33	0.94
1661.65	0.939
1671.97	0.943
1682.3	0.944
1692.62	0.942
1702.94	0.946
1713.26	0.942
1723.59	0.942
1733.91	0.937
1744.23	0.927
1754.56	0.926
1764.88	0.929
1775.2	0.934
1785.52	0.936
1795.85	0.935
1806.17	0.934
1816.49	0.931
1826.81	0.929
1837.14	0.93
1847.46	0.93
1857.78	0.93
1868.1	0.93
1878.43	0.929
1888.75	0.929
1899.07	0.929
1909.39	0.925
1919.72	0.922
1930.04	0.922
1940.36	0.922
1950.68	0.922
1961.01	0.925
1971.33	0.926
1981.65	0.929
1991.98	0.934
2002.3	0.936
2012.62	0.9375
2022.94	0.938
2033.27	0.9395
2043.59	0.94
2053.91	0.94
2064.23	0.939
2074.56	0.9355
2084.88	0.9281
2095.2	0.9303
2105.52	0.9369
2115.85	0.936
2126.17	0.9291
2136.49	0.9317
2146.81	0.9369
2157.14	0.936
2167.46	0.938
2177.78	0.939
2188.1	0.94
2198.43	0.94
2208.75	0.94
2219.07	0.939
2229.4	0.9361
2239.72	0.935
2250.04	0.937
2260.36	0.939
2270.69	0.94
2281.01	0.94
2291.33	0.94
2301.65	0.939
2311.98	0.939
2322.3	0.9357
2332.62	0.9324
2342.94	0.9294
2353.27	0.9104
2363.59	0.9108
2373.91	0.9293
2384.23	0.9347
2394.56	0.932
2404.88	0.936
2415.2	0.939
2425.52	0.938
2435.85	0.9363
2446.17	0.935
2456.49	0.9306
2466.81	0.9182
2477.14	0.9274
2487.46	0.9324
2497.78	0.937
2508.11	0.938
2518.43	0.937
2528.75	0.936
2539.07	0.9303
2549.4	0.9233
2559.72	0.9307
2570.04	0.9341
2580.36	0.935
2590.69	0.936
2601.01	0.935
2611.33	0.93
2621.65	0.9333
2631.98	0.935
2642.3	0.935
2652.62	0.935
2662.94	0.935
2673.27	0.932
2683.59	0.9314
2693.91	0.9222
2704.23	0.93
2714.56	0.932
2724.88	0.932
2735.2	0.932
2745.53	0.932
2755.85	0.93
2766.17	0.9305
2776.49	0.93
2786.82	0.93
2797.14	0.929
2807.46	0.925
2817.78	0.904
2828.11	0.9175
2838.43	0.923
2848.75	0.923
2859.07	0.925
2869.4	0.925
2879.72	0.9231
2890.04	0.922
2900.36	0.921
2910.69	0.919
2921.01	0.9131
2931.33	0.909
2941.65	0.8945
2951.98	0.8368
2962.3	0.661
2972.62	0.8478
2982.94	0.8799
2993.27	0.892
3003.59	0.8628
3013.91	0.756
3024.24	0.8262
3034.56	0.867
3044.88	0.8876
3055.2	0.8974
3065.53	0.9019
3075.85	0.903
3086.17	0.905
3096.49	0.909
3106.82	0.909
3117.14	0.909
3127.46	0.909
3137.78	0.909
3148.11	0.909
3158.43	0.909
3168.75	0.909
3179.07	0.9084
3189.4	0.9062
3199.72	0.905
3210.04	0.9042
3220.36	0.904
3230.69	0.904
3241.01	0.9027
3251.33	0.9013
3261.66	0.9
3271.98	0.9
3282.3	0.9
3292.62	0.8973
3302.95	0.896
3313.27	0.896
3323.59	0.894
3333.91	0.892
3344.24	0.889
3354.56	0.889
3364.88	0.89
3375.2	0.89
3385.53	0.89
3395.85	0.89
3406.17	0.89
3416.49	0.89
3426.82	0.89
3437.14	0.8896
3447.46	0.89
3457.78	0.892
3468.11	0.892
3478.43	0.893
3488.75	0.895
3499.08	0.895
3509.4	0.896
3519.72	0.898
3530.04	0.9
3540.37	0.9
3550.69	0.9
3561.01	0.9
3571.33	0.901
3581.66	0.9015
3591.98	0.902
3602.3	0.903
3612.62	0.903
3622.95	0.904
3633.27	0.906
3643.59	0.907
3653.91	0.907
3664.24	0.907
3674.56	0.907
3684.88	0.906
3695.2	0.906
3705.53	0.905
3715.85	0.905
3726.17	0.906
3736.49	0.905
3746.82	0.904
3757.14	0.9021
3767.46	0.9006
3777.79	0.9
3788.11	0.9034
3798.43	0.906
3808.75	0.907
3819.08	0.906
3829.4	0.904
3839.72	0.903
3850.04	0.902
3860.37	0.903
3870.69	0.904
3881.01	0.904
3891.33	0.903
3901.66	0.902
3911.98	0.9007
3922.3	0.901
3932.62	0.902
3942.95	0.9012
3953.27	0.9
3963.59	0.8944
3973.91	0.8893
3984.24	0.897
3994.56	0.901
4004.88	0.897
4015.21	0.901
