Infrared Spectrum: 2-Propanol, 1-chloro-
Formula: C 3 H 7 Cl O
CAS: 127-00-4
State: gas
Origin: Sadtler Research Labs Under US-EPA Contract
1/CM	ABSORBANCE
450	0.115384
462	0.106393
474	0.0804016
486	0.0832953
498	0.0219089
510	0.0152949
522	0.00935263
534	0.0035137
546	0.0125563
558	0.0370488
570	0.0597328
582	0.0332251
594	0.0174651
606	0.00862922
618	0.00713074
630	0.00744077
642	0.00718241
654	0.00924929
666	0.0106961
678	0.013383
690	0.0243892
702	0.0560641
714	0.0840703
726	0.115125
738	0.233041
750	0.330339
762	0.242445
774	0.163594
786	0.0428878
798	0.0242342
810	0.0594745
822	0.114298
834	0.137964
846	0.0980218
858	0.0276962
870	0.0204104
882	0.0300731
894	0.0333284
906	0.0325017
918	0.0566325
930	0.140755
942	0.164679
954	0.137913
966	0.0670186
978	0.0343102
990	0.0347753
1002	0.0602496
1014	0.133934
1026	0.258825
1038	0.358707
1050	0.386713
1062	0.330184
1074	0.342172
1086	0.341242
1098	0.313442
1110	0.274378
1122	0.264871
1134	0.254381
1146	0.195475
1158	0.149952
1170	0.107994
1182	0.116934
1194	0.142976
1206	0.140496
1218	0.123806
1230	0.147937
1242	0.26978
1254	0.457866
1266	0.473264
1278	0.323363
1290	0.161268
1302	0.101639
1314	0.0844837
1326	0.099882
1338	0.137809
1350	0.17987
1362	0.225858
1374	0.294324
1386	0.333388
1398	0.258877
1410	0.142563
1422	0.116469
1434	0.163129
1446	0.196302
1458	0.129128
1470	0.0831919
1482	0.04821
1494	0.0206688
1506	0.0126596
1518	0.00976601
1530	0.00614897
1542	0.00537389
1554	0.00449546
1566	0.00511553
1578	0.00304865
1590	0.00320366
1602	0.00273862
1614	0.00279029
1626	0.00155016
1638	0.00211855
1650	0.000826752
1662	0.0029453
1674	0.00227357
1686	0.0029453
1698	0.000826752
1710	0.00449546
1722	0.00547723
1734	0.00821585
1746	0.013073
1758	0.01607
1770	0.0138481
1782	0.00847421
1794	0.00542556
1806	0.00284196
1818	0.00191186
1830	0.00242858
1842	0.00196354
1854	0.00273862
1866	0.00465048
1878	0.00403042
1890	0.00434045
1902	0.00346202
1914	0.00315199
1926	0.00263527
1938	0.00232524
1950	0.0022219
1962	0.00356537
1974	0.00397874
1986	0.00366871
1998	0.00413376
2010	0.0048055
2022	0.0051672
2034	0.00413376
2046	0.00366871
2058	0.00315199
2070	0.00377206
2082	0.00382373
2094	0.00408209
2106	0.00366871
2118	0.00335868
2130	0.0025836
2142	0.00248026
2154	0.00284196
2166	0.00330701
2178	0.00408209
2190	0.00537389
2202	0.00532222
2214	0.00459881
2226	0.00299698
2238	0.00248026
2250	0.00330701
2262	0.00449546
2274	0.00547723
2286	0.00563225
2298	0.006459
2310	0.0060973
2322	0.00537389
2334	0.00563225
2346	0.00744077
2358	0.00397874
2370	0.00640733
2382	0.00614897
2394	0.00547723
2406	0.00604562
2418	0.00578726
2430	0.00475382
2442	0.00454714
2454	0.00428878
2466	0.00397874
2478	0.00459881
2490	0.00563225
2502	0.00671736
2514	0.00676903
2526	0.00630398
2538	0.00542556
2550	0.00496051
2562	0.00449546
2574	0.00459881
2586	0.00496051
2598	0.00578726
2610	0.00687238
2622	0.0077508
2634	0.00847421
2646	0.00945598
2658	0.0094043
2670	0.0102311
2682	0.0124013
2694	0.016225
2706	0.0143648
2718	0.0129697
2730	0.0116779
2742	0.0127113
2754	0.0137448
2766	0.0139514
2778	0.0153466
2790	0.0158116
2802	0.0171034
2814	0.0207721
2826	0.0248542
2838	0.0331734
2850	0.0484683
2862	0.0780764
2874	0.136879
2886	0.1947
2898	0.261925
2910	0.238673
2922	0.215627
2934	0.208342
2946	0.244667
2958	0.338813
2970	0.423142
2982	0.512845
2994	0.460294
3006	0.319385
3018	0.1267
3030	0.0499152
3042	0.0173101
3054	0.0090426
3066	0.0077508
3078	0.00930096
3090	0.0101794
3102	0.00992102
3114	0.00847421
3126	0.00744077
3138	0.00578726
3150	0.00625231
3162	0.006459
3174	0.00723408
3186	0.0081125
3198	0.00837086
3210	0.00697572
3222	0.00537389
3234	0.00361704
3246	0.00361704
3258	0.0038754
3270	0.00459881
3282	0.00310032
3294	0.00382373
3306	0.00403042
3318	0.00335868
3330	0.00403042
3342	0.00444379
3354	0.00459881
3366	0.00330701
3378	0.00413376
3390	0.0035137
3402	0.00547723
3414	0.00403042
3426	0.00454714
3438	0.0048055
3450	0.00346202
3462	0.00511553
3474	0.00625231
3486	0.00661402
3498	0.00707906
3510	0.00702739
3522	0.00496051
3534	0.00578726
3546	0.00692405
3558	0.0055289
3570	0.00754411
3582	0.0145715
3594	0.0418543
3606	0.12608
3618	0.202089
3630	0.213095
3642	0.126958
3654	0.100089
3666	0.0786448
3678	0.0279546
3690	0.0145198
3702	0.010076
3714	0.00728575
3726	0.00899093
3738	0.0114712
3750	0.00335868
3762	0.00790582
3774	0.00315199
3786	0.00413376
3798	0.000310032
3810	0.00769913
3822	0.00201521
3834	0.00589061
3846	0.0055289
3858	0.00361704
3870	0.000361704
3882	0.00077508
3894	0.00620064
3906	0.00583894
3918	0.00604562
3930	0.00418543
3942	0.00268694
3954	0.00418543
3966	0.00134347
