Infrared Spectrum: Cyanoacetic acid
Formula: C 3 H 3 N O 2
CAS: 372-09-8
State: gas
Instrument: HP-GC/MS/IRD
Origin: NIST Mass Spectrometry Data Center
1/CM	ABSORBANCE
550	0.0012877
562	0.002054
574	0.0025122
586	0.0033022
598	0.00474
610	0.0053246
622	0.0059487
634	0.0061936
646	0.0080185
658	0.0066281
670	0.0273498
682	0.0076235
694	0.006636
706	0.0038868
718	0.0038868
730	0.0015721
742	0.001422
754	0.0006873
766	0.0003002
778	0.000158
790	5.53e-05
802	0
814	1.58e-05
826	0.0001106
838	0.0002528
850	0.0003555
862	0.0004582
874	0.0003792
886	0.0003713
898	0.0004266
910	0.0005135
922	0.0004345
934	0.0005925
946	0.0006873
958	0.0007268
970	0.0006478
982	0.0004661
994	0.0003318
1006	0.0002686
1018	0.0002686
1030	0.0003792
1042	0.0004661
1054	0.000632
1066	0.0008374
1078	0.0013983
1090	0.0027966
1102	0.0062094
1114	0.0112417
1126	0.0140778
1138	0.0131061
1150	0.0089744
1162	0.0063832
1174	0.0040211
1186	0.0029704
1198	0.002844
1210	0.0026386
1222	0.0021488
1234	0.001738
1246	0.0015563
1258	0.00158
1270	0.0016669
1282	0.0018328
1294	0.001896
1306	0.0018486
1318	0.0018091
1330	0.0019671
1342	0.0025991
1354	0.0039026
1366	0.0050323
1378	0.0048664
1390	0.0034602
1402	0.0027097
1414	0.0023226
1426	0.0022515
1438	0.0017301
1450	0.0014062
1462	0.0014852
1474	0.000948
1486	0.0008927
1498	0.0009164
1510	0.0007426
1522	0.0006873
1534	0.0005609
1546	0.0004187
1558	0.0003871
1570	0.0003397
1582	0.0002844
1594	0.0002528
1606	0.0003002
1618	0.0004424
1630	0.000553
1642	0.0004977
1654	0.0004266
1666	0.0003002
1678	0.0002844
1690	0.0003555
1702	0.0005293
1714	0.0007189
1726	0.0010507
1738	0.0016985
1750	0.0030178
1762	0.0058065
1774	0.0113523
1786	0.0181621
1798	0.0206822
1810	0.0174511
1822	0.0098908
1834	0.0048032
1846	0.0019987
1858	0.0008295
1870	0.0004345
1882	0.0002291
1894	0.000158
1906	0.0001027
1918	8.69e-05
1930	0.0001027
1942	8.69e-05
1954	5.53e-05
1966	6.32e-05
1978	7.11e-05
1990	6.32e-05
2002	4.74e-05
2014	2.37e-05
2026	1.58e-05
2038	1.58e-05
2050	1.58e-05
2062	0
2074	3.16e-05
2086	3.16e-05
2098	2.37e-05
2110	1.58e-05
2122	3.16e-05
2134	0.0001501
2146	0.0003792
2158	0.0005372
2170	0.0005293
2182	0.0002844
2194	5.53e-05
2206	0.0001264
2218	0.0002923
2230	0.0006241
2242	0.0012008
2254	0.0021172
2266	0.0040448
2278	0.0085241
2290	0.0186361
2302	0.0354315
2314	0.053483
2326	0.0612408
2338	0.0576463
2350	0.0538385
2362	0.079
2374	0.0580255
2386	0.0152549
2398	0.0015089
2410	0.0006952
2422	0.0005056
2434	0.0003871
2446	0.000316
2458	0.0002528
2470	0.000237
2482	0.0002449
2494	0.0002212
2506	0.0001659
2518	0.0001106
2530	7.11e-05
2542	8.69e-05
2554	7.11e-05
2566	5.53e-05
2578	9.48e-05
2590	8.69e-05
2602	0.0001264
2614	0.0001817
2626	0.0001264
2638	0.0001264
2650	6.32e-05
2662	5.53e-05
2674	3.95e-05
2686	1.58e-05
2698	1.58e-05
2710	0
2722	3.16e-05
2734	7.9e-06
2746	7.9e-06
2758	2.37e-05
2770	0
2782	0
2794	7.9e-06
2806	2.37e-05
2818	4.74e-05
2830	7.11e-05
2842	0.0001106
2854	0.0001264
2866	0.0001659
2878	0.0001817
2890	0.0001975
2902	0.0002212
2914	0.000316
2926	0.0004424
2938	0.0006004
2950	0.000474
2962	0.0004819
2974	0.0005767
2986	0.0004187
2998	0.0002607
3010	0.0002844
3022	0.0002291
3034	0.0002291
3046	0.000237
3058	0.000237
3070	0.0002212
3082	0.0001896
3094	0.0001817
3106	0.0001106
3118	9.48e-05
3130	0.0001264
3142	0.0001264
3154	0.0001501
3166	0.0001738
3178	0.0001264
3190	0.0001817
3202	0.000158
3214	6.32e-05
3226	0.0001027
3238	9.48e-05
3250	6.32e-05
3262	1.58e-05
3274	1.58e-05
3286	2.37e-05
3298	4.74e-05
3310	1.58e-05
3322	0
3334	3.16e-05
3346	4.74e-05
3358	2.37e-05
3370	8.69e-05
3382	0
3394	3.16e-05
3406	1.58e-05
3418	8.69e-05
3430	5.53e-05
3442	9.48e-05
3454	2.37e-05
3466	3.95e-05
3478	0.0001343
3490	0.0001343
3502	0.0001738
3514	0.0002923
3526	0.0004582
3538	0.0008927
3550	0.0018565
3562	0.0053246
3574	0.0079948
3586	0.0079711
3598	0.0042739
3610	0.0016037
3622	0.0012877
3634	0.0012798
3646	0.0007347
3658	0.0004503
3670	0.0006083
3682	0.0010349
3694	0.0015563
3706	0.0014852
3718	0.0009717
3730	0.0019592
3742	0.0017617
3754	0.0006083
3766	0.0001659
3778	0.0001343
3790	0.000158
3802	0.0001817
3814	0.0001738
3826	0.000158
3838	0.0001501
