Infrared Spectrum: CYANOACETIC ACID
Formula: C3 H3 N O2
CAS: 372-09-8
State: SOLID (MINERAL OIL MULL)
Boiling point: 89-90 C
Class: COBLENTZ
Instrument: Not specified, most likely a prism, grating, or hybrid spectrometer.
Sampling: TRANSMISSION
Resolution: 4
Origin: WYANDOTTE CHEMICALS CORP., WYANDOTTE, MICHIGAN, USA
MICROMETERS	TRANSMITTANCE
2.025	0.927
2.06209	0.928
2.09917	0.917
2.13626	0.906
2.17334	0.882
2.21043	0.79
2.24752	0.782
2.2846	0.803
2.32169	0.795
2.35877	0.817
2.39586	0.84
2.43295	0.871
2.47003	0.888
2.50712	0.889
2.5442	0.917
2.58129	0.927
2.61838	0.927
2.65546	0.931
2.69255	0.894
2.72963	0.817
2.76672	0.747
2.8038	0.719
2.84089	0.665
2.87798	0.601
2.91506	0.558
2.95215	0.51
2.98923	0.426
3.02632	0.327
3.06341	0.269
3.10049	0.232
3.13758	0.2
3.17466	0.181
3.21175	0.186
3.24884	0.184
3.28592	0.148
3.32301	0.058
3.36009	0.015
3.39718	0.013
3.43427	0.013
3.47135	0.013
3.50844	0.015
3.54552	0.048
3.58261	0.147
3.6197	0.213
3.65678	0.227
3.69387	0.227
3.73095	0.237
3.76804	0.254
3.80513	0.265
3.84221	0.271
3.8793	0.289
3.91638	0.303
3.95347	0.325
3.99055	0.342
4.02764	0.356
4.06473	0.375
4.10181	0.412
4.1389	0.42
4.17598	0.452
4.21307	0.474
4.25016	0.46
4.28724	0.472
4.32433	0.493
4.36141	0.51
4.3985	0.502
4.43559	0.283
4.47267	0.336
4.50976	0.519
4.54684	0.55
4.58393	0.562
4.62102	0.573
4.6581	0.567
4.69519	0.584
4.73227	0.595
4.76936	0.598
4.80645	0.596
4.84353	0.586
4.88062	0.59
4.9177	0.59
4.95479	0.604
4.99188	0.61
5.02896	0.604
5.06605	0.596
5.10313	0.578
5.14022	0.572
5.17731	0.55
5.21439	0.545
5.25148	0.533
5.28856	0.505
5.32565	0.486
5.36273	0.44
5.39982	0.401
5.43691	0.382
5.47399	0.387
5.51108	0.355
5.54816	0.311
5.58525	0.28
5.62234	0.229
5.65942	0.179
5.69651	0.141
5.73359	0.133
5.77068	0.108
5.80777	0.124
5.84485	0.144
5.88194	0.173
5.91902	0.227
5.95611	0.266
5.9932	0.305
6.03028	0.348
6.06737	0.393
6.10445	0.431
6.14154	0.451
6.17863	0.491
6.21571	0.536
6.2528	0.572
6.28988	0.587
6.32697	0.606
6.36406	0.649
6.40114	0.719
6.43823	0.724
6.47531	0.75
6.5124	0.75
6.54948	0.758
6.58657	0.727
6.62366	0.677
6.66074	0.617
6.69783	0.483
6.73491	0.269
6.772	0.046
6.80909	0.026
6.84617	0.026
6.88326	0.026
6.92034	0.043
6.95743	0.083
6.99452	0.145
7.0316	0.161
7.06869	0.147
7.10577	0.124
7.14286	0.099
7.17995	0.062
7.21703	0.02
7.25412	0.017
7.2912	0.052
7.32829	0.12
7.36538	0.209
7.40246	0.254
7.43955	0.272
7.47663	0.275
7.51372	0.251
7.55081	0.207
7.58789	0.201
7.62498	0.19
7.66206	0.187
7.69915	0.182
7.73624	0.17
7.77332	0.187
7.81041	0.262
7.84749	0.341
7.88458	0.387
7.92166	0.382
7.95875	0.345
7.99584	0.283
8.03292	0.22
8.07001	0.162
8.10709	0.114
8.14418	0.125
8.18127	0.15
8.21835	0.147
8.25544	0.117
8.29252	0.131
8.32961	0.12
8.3667	0.122
8.40378	0.116
8.44087	0.1
8.47795	0.093
8.51504	0.102
8.55213	0.103
8.58921	0.113
8.6263	0.134
8.66338	0.137
8.70047	0.158
8.73756	0.179
8.77464	0.193
8.81173	0.21
8.84881	0.218
8.8859	0.229
8.92299	0.249
8.96007	0.249
8.99716	0.269
9.03424	0.274
9.07133	0.285
9.10841	0.291
9.1455	0.299
9.18259	0.3
9.21967	0.308
9.25676	0.319
9.29384	0.314
9.33093	0.33
9.36802	0.334
9.4051	0.339
9.44219	0.35
9.47927	0.348
9.51636	0.353
9.55345	0.356
9.59053	0.353
9.62762	0.358
9.6647	0.359
9.70179	0.362
9.73888	0.365
9.77596	0.373
9.81305	0.372
9.85013	0.379
9.88722	0.386
9.92431	0.384
9.96139	0.387
9.99848	0.387
10.0356	0.387
10.0726	0.382
10.1097	0.364
10.1468	0.33
10.1839	0.289
10.221	0.237
10.2581	0.179
10.2952	0.151
10.3323	0.17
10.3693	0.206
10.4064	0.24
10.4435	0.24
10.4806	0.252
10.5177	0.249
10.5548	0.243
10.5919	0.243
10.6289	0.212
10.666	0.162
10.7031	0.119
10.7402	0.159
10.7773	0.213
10.8144	0.241
10.8515	0.257
10.8885	0.262
10.9256	0.262
10.9627	0.262
10.9998	0.271
11.0369	0.268
11.074	0.258
11.1111	0.254
11.1481	0.251
11.1852	0.231
11.2223	0.203
11.2594	0.198
11.2965	0.2
11.3336	0.176
11.3707	0.137
11.4077	0.124
11.4448	0.13
11.4819	0.15
11.519	0.162
11.5561	0.184
11.5932	0.195
11.6303	0.201
11.6673	0.215
11.7044	0.217
11.7415	0.224
11.7786	0.221
11.8157	0.235
11.8528	0.234
11.8899	0.241
11.9269	0.251
11.964	0.248
12.0011	0.255
12.0382	0.252
12.0753	0.254
12.1124	0.248
12.1495	0.249
12.1865	0.249
12.2236	0.243
12.2607	0.238
12.2978	0.229
12.3349	0.22
12.372	0.21
12.4091	0.209
12.4461	0.195
12.4832	0.192
12.5203	0.19
12.5574	0.189
12.5945	0.184
12.6316	0.184
12.6687	0.189
12.7058	0.186
12.7428	0.189
12.7799	0.193
12.817	0.204
12.8541	0.21
12.8912	0.207
12.9283	0.215
12.9654	0.218
13.0024	0.238
13.0395	0.246
13.0766	0.252
13.1137	0.265
13.1508	0.271
13.1879	0.279
13.225	0.282
13.262	0.294
13.2991	0.297
13.3362	0.308
13.3733	0.311
13.4104	0.324
13.4475	0.319
13.4846	0.32
13.5216	0.32
13.5587	0.32
13.5958	0.322
13.6329	0.33
13.67	0.327
13.7071	0.33
13.7442	0.339
13.7812	0.348
13.8183	0.35
13.8554	0.358
13.8925	0.368
13.9296	0.375
13.9667	0.401
14.0038	0.429
14.0408	0.449
14.0779	0.458
14.115	0.474
14.1521	0.477
14.1892	0.477
14.2263	0.471
14.2634	0.458
14.3004	0.438
14.3375	0.429
14.3746	0.401
14.4117	0.382
14.4488	0.361
14.4859	0.345
14.523	0.336
14.56	0.325
14.5971	0.334
14.6342	0.331
14.6713	0.341
14.7084	0.345
14.7455	0.351
14.7826	0.358
14.8196	0.353
14.8567	0.35
14.8938	0.33
14.9309	0.324
14.968	0.322
15.0051	0.322
15.0422	0.331
15.0793	0.347
15.1163	0.333
15.1534	0.311
15.1905	0.319
15.2276	0.331
15.2647	0.356
15.3018	0.362
15.3389	0.389
15.3759	0.396
15.413	0.413
15.4501	0.429
15.4872	0.438
15.5243	0.452
15.5614	0.458
15.5985	0.469
15.6355	0.483
15.6726	0.483
15.7097	0.496
15.7468	0.494
15.7839	0.499
15.821	0.499
15.8581	0.503
15.8951	0.513
15.9322	0.513
15.9693	0.517
16.0064	0.52
