Infrared Spectrum: 1,1-DICHLOROBUTANE
Formula: C4 H8 Cl2
CAS: 541-33-3
Class: COBLENTZ
Instrument: Not specified, most likely a prism, grating, or hybrid spectrometer.
Sampling: TRANSMISSION
Path length: 0.0025 CM
Resolution: 4
Origin: W.T. BOLLETER
MICROMETERS	TRANSMITTANCE
14.544	0
14.6142	0
14.6845	0
14.7547	0
14.8249	0
14.8951	0
14.9654	0
15.0356	0
15.1058	0
15.1761	0
15.2463	0
15.3165	0
15.3867	0
15.457	0
15.5272	0
15.5974	0
15.6677	0
15.7379	0.001
15.8081	0.017
15.8783	0.08
15.9486	0.164
16.0188	0.25
16.089	0.335
16.1593	0.396
16.2295	0.435
16.2997	0.458
16.3699	0.471
16.4402	0.482
16.5104	0.5
16.5806	0.512
16.6509	0.523
16.7211	0.537
16.7913	0.566
16.8615	0.608
16.9318	0.639
17.002	0.676
17.0722	0.7
17.1425	0.708
17.2127	0.714
17.2829	0.701
17.3531	0.689
17.4234	0.65
17.4936	0.603
17.5638	0.517
17.6341	0.425
17.7043	0.321
17.7745	0.233
17.8447	0.221
17.915	0.296
17.9852	0.423
18.0554	0.55
18.1257	0.648
18.1959	0.716
18.2661	0.762
18.3363	0.791
18.4066	0.812
18.4768	0.825
18.547	0.828
18.6173	0.828
18.6875	0.823
18.7577	0.817
18.828	0.808
18.8982	0.8
18.9684	0.787
19.0386	0.782
19.1089	0.785
19.1791	0.8
19.2493	0.812
19.3196	0.825
19.3898	0.833
19.46	0.842
19.5302	0.85
19.6005	0.853
19.6707	0.857
19.7409	0.858
19.8112	0.857
19.8814	0.853
19.9516	0.853
20.0218	0.848
20.0921	0.841
20.1623	0.835
20.2325	0.833
20.3028	0.828
20.373	0.821
20.4432	0.816
20.5134	0.808
20.5837	0.8
20.6539	0.792
20.7241	0.78
20.7944	0.771
20.8646	0.762
20.9348	0.75
21.005	0.735
21.0753	0.723
21.1455	0.708
21.2157	0.698
21.286	0.678
21.3562	0.66
21.4264	0.646
21.4966	0.61
21.5669	0.587
21.6371	0.551
21.7073	0.512
21.7776	0.471
21.8478	0.423
21.918	0.358
21.9882	0.283
22.0585	0.216
22.1287	0.151
22.1989	0.105
22.2692	0.071
22.3394	0.069
22.4096	0.085
22.4798	0.142
22.5501	0.205
22.6203	0.283
22.6905	0.366
22.7608	0.437
22.831	0.482
22.9012	0.528
22.9714	0.571
23.0417	0.605
23.1119	0.628
23.1821	0.651
23.2524	0.671
23.3226	0.689
23.3928	0.696
23.463	0.705
23.5333	0.712
23.6035	0.721
23.6737	0.73
23.744	0.733
23.8142	0.737
23.8844	0.742
23.9546	0.748
24.0249	0.75
24.0951	0.751
24.1653	0.751
24.2356	0.748
24.3058	0.746
24.376	0.739
24.4462	0.728
24.5165	0.719
24.5867	0.701
24.6569	0.682
24.7272	0.666
24.7974	0.655
24.8676	0.644
24.9378	0.632
25.0081	0.614
25.0783	0.596
25.1485	0.576
25.2188	0.566
25.289	0.551
25.3592	0.542
25.4294	0.539
25.4997	0.537
25.5699	0.541
25.6401	0.548
25.7104	0.564
25.7806	0.575
25.8508	0.585
25.921	0.603
25.9913	0.623
26.0615	0.639
26.1317	0.651
26.202	0.662
26.2722	0.673
26.3424	0.682
26.4127	0.689
26.4829	0.7
26.5531	0.705
26.6233	0.714
26.6936	0.721
26.7638	0.735
26.834	0.748
26.9043	0.75
26.9745	0.751
27.0447	0.757
27.1149	0.762
27.1852	0.764
27.2554	0.764
27.3256	0.757
27.3959	0.744
27.4661	0.719
27.5363	0.678
27.6065	0.63
27.6768	0.582
27.747	0.51
27.8172	0.43
27.8875	0.364
27.9577	0.3
28.0279	0.237
28.0981	0.212
28.1684	0.201
28.2386	0.201
28.3088	0.223
28.3791	0.251
28.4493	0.291
28.5195	0.346
28.5897	0.403
28.66	0.457
28.7302	0.523
28.8004	0.587
28.8707	0.637
28.9409	0.68
29.0111	0.725
29.0813	0.746
29.1516	0.76
29.2218	0.771
29.292	0.787
29.3623	0.8
29.4325	0.808
29.5027	0.81
29.5729	0.812
29.6432	0.814
29.7134	0.814
29.7836	0.812
29.8539	0.812
29.9241	0.808
29.9943	0.801
30.0645	0.794
30.1348	0.783
30.205	0.771
30.2752	0.753
30.3455	0.726
30.4157	0.708
30.4859	0.692
30.5561	0.671
30.6264	0.637
30.6966	0.608
30.7668	0.598
30.8371	0.587
30.9073	0.573
30.9775	0.558
31.0477	0.548
31.118	0.539
31.1882	0.535
31.2584	0.537
31.3287	0.539
31.3989	0.546
31.4691	0.558
31.5393	0.575
31.6096	0.589
31.6798	0.61
31.75	0.626
31.8203	0.655
31.8905	0.676
31.9607	0.696
32.0309	0.712
32.1012	0.73
32.1714	0.741
32.2416	0.757
32.3119	0.773
32.3821	0.787
32.4523	0.798
32.5225	0.808
32.5928	0.812
32.663	0.823
32.7332	0.83
32.8035	0.839
32.8737	0.846
32.9439	0.848
33.0141	0.855
33.0844	0.851
33.1546	0.85
33.2248	0.844
33.2951	0.844
33.3653	0.848
33.4355	0.851
33.5057	0.857
33.576	0.864
33.6462	0.864
33.7164	0.866
33.7867	0.869
33.8569	0.871
33.9271	0.869
33.9973	0.871
34.0676	0.871
34.1378	0.873
34.208	0.866
34.2783	0.862
34.3485	0.864
34.4187	0.864
34.489	0.864
34.5592	0.86
34.6294	0.855
34.6996	0.839
34.7699	0.83
34.8401	0.823
34.9103	0.819
34.9806	0.814
35.0508	0.805
35.121	0.801
35.1912	0.798
35.2615	0.794
35.3317	0.789
35.4019	0.789
35.4722	0.785
35.5424	0.773
35.6126	0.757
35.6828	0.75
35.7531	0.748
35.8233	0.742
35.8935	0.735
35.9638	0.726
36.034	0.719
36.1042	0.712
36.1744	0.701
36.2447	0.696
36.3149	0.694
36.3851	0.689
36.4554	0.682
36.5256	0.676
36.5958	0.666
36.666	0.66
36.7363	0.655
36.8065	0.655
36.8767	0.65
36.947	0.641
37.0172	0.632
37.0874	0.623
37.1576	0.608
37.2279	0.601
37.2981	0.6
37.3683	0.596
37.4386	0.592
37.5088	0.585
37.579	0.582
37.6492	0.575
37.7195	0.571
37.7897	0.562
37.8599	0.553
37.9302	0.546
38.0004	0.533
