Infrared Spectrum: CHLOROACETIC ACID
Formula: C2 H3 Cl O2
CAS: 79-11-8
State: SOLUTION (11% IN CCl4 FOR 3800-1300, 4% IN CS2 FOR 1300-645, AND 11% IN CCl4 FOR 645-250 CM^-^1)
Class: COBLENTZ III
Instrument: PERKIN-ELMER 521 (GRATING)
Instrument parameters: FILTERS AT 3150, 2500, 2000, 1150, 700, 410. GRATING CHANGES: 2000, 630 CM^-^1
Sampling: TRANSMISSION
Path length: 0.012 CM, 0.011 CM, AND 0.011 CM
Resolution: 2
Origin: DOW CORNING CORP.
1/CM	TRANSMITTANCE
248.674	0.744
257.901	0.759
267.128	0.763
276.356	0.771
285.583	0.816
294.81	0.854
304.037	0.875
313.265	0.9
322.492	0.916
331.719	0.928
340.946	0.931
350.174	0.936
359.401	0.953
368.628	0.958
377.855	0.955
387.083	0.962
396.31	0.948
405.537	0.932
414.764	0.905
423.992	0.879
433.219	0.845
442.446	0.748
451.673	0.649
460.9	0.706
470.128	0.87
479.355	0.926
488.582	0.952
497.809	0.962
507.037	0.966
516.264	0.97
525.491	0.968
534.718	0.966
543.946	0.96
553.173	0.941
562.4	0.925
571.627	0.9
580.855	0.88
590.082	0.886
599.309	0.887
608.536	0.849
617.764	0.832
626.991	0.821
636.218	0.812
645.445	0.806
654.673	0.799
663.9	0.81
673.127	0.825
682.354	0.869
691.581	0.921
700.809	0.933
710.036	0.942
719.263	0.945
728.49	0.946
737.718	0.942
746.945	0.917
756.172	0.895
765.399	0.877
774.627	0.834
783.854	0.754
793.081	0.614
802.308	0.587
811.536	0.806
820.763	0.839
829.99	0.837
839.217	0.832
848.445	0.821
857.672	0.804
866.899	0.786
876.126	0.756
885.353	0.731
894.581	0.689
903.808	0.647
913.035	0.643
922.262	0.62
931.49	0.653
940.717	0.776
949.944	0.836
959.171	0.877
968.399	0.901
977.626	0.916
986.853	0.927
996.08	0.926
1005.31	0.931
1014.53	0.928
1023.76	0.922
1032.99	0.917
1042.22	0.916
1051.44	0.915
1060.67	0.917
1069.9	0.917
1079.13	0.916
1088.35	0.907
1097.58	0.885
1106.81	0.856
1116.03	0.86
1125.26	0.835
1134.49	0.806
1143.72	0.784
1152.94	0.776
1162.17	0.756
1171.4	0.748
1180.63	0.718
1189.85	0.665
1199.08	0.5389
1208.31	0.31
1217.53	0.5091
1226.76	0.688
1235.99	0.725
1245.22	0.723
1254.44	0.68
1263.67	0.659
1272.9	0.608
1282.12	0.518
1291.35	0.521
1300.58	0.563
1309.81	0.6
1319.03	0.64
1328.26	0.724
1337.49	0.798
1346.72	0.8
1355.94	0.798
1365.17	0.785
1374.4	0.766
1383.62	0.71
1392.85	0.563
1402.08	0.408
1411.31	0.3209
1420.53	0.13
1429.76	0.2201
1438.99	0.4031
1448.22	0.617
1457.44	0.724
1466.67	0.775
1475.9	0.794
1485.12	0.802
1494.35	0.81
1503.58	0.841
1512.81	0.839
1522.03	0.836
1531.26	0.824
1540.49	0.805
1549.71	0.799
1558.94	0.815
1568.17	0.824
1577.4	0.826
1586.62	0.826
1595.85	0.827
1605.08	0.827
1614.31	0.827
1623.53	0.814
1632.76	0.801
1641.99	0.776
1651.21	0.743
1660.44	0.677
1669.67	0.628
1678.9	0.579
1688.12	0.519
1697.35	0.4049
1706.58	0.2529
1715.8	0.0589
1725.03	0.002
1734.26	0
1743.49	0.002
1752.71	0.1341
1761.94	0.351
1771.17	0.482
1780.4	0.599
1789.62	0.592
1798.85	0.6301
1808.08	0.692
1817.3	0.701
1826.53	0.776
1835.76	0.83
1844.99	0.844
1854.21	0.861
1863.44	0.871
1872.67	0.874
1881.9	0.877
1891.12	0.886
1900.35	0.89
1909.58	0.895
1918.8	0.895
1928.03	0.897
1937.26	0.9
1946.49	0.901
1955.71	0.899
1964.94	0.901
1974.17	0.905
1983.39	0.905
1992.62	0.906
2001.85	0.916
2011.08	0.922
2020.3	0.925
2029.53	0.9331
2038.76	0.933
2047.99	0.9319
2057.21	0.9297
2066.44	0.925
2075.67	0.923
2084.89	0.9218
2094.12	0.9178
2103.35	0.9093
2112.58	0.9007
2121.8	0.899
2131.03	0.901
2140.26	0.9086
2149.49	0.9137
2158.71	0.913
2167.94	0.9076
2177.17	0.906
2186.39	0.905
2195.62	0.897
2204.85	0.894
2214.08	0.8955
2223.3	0.897
2232.53	0.9
2241.76	0.901
2250.98	0.899
2260.21	0.9006
2269.44	0.8998
2278.67	0.8927
2287.89	0.891
2297.12	0.8863
2306.35	0.8696
2315.58	0.8506
2324.8	0.845
2334.03	0.8412
2343.26	0.84
2352.48	0.841
2361.71	0.841
2370.94	0.84
2380.17	0.8343
2389.39	0.8222
2398.62	0.8073
2407.85	0.7912
2417.08	0.7791
2426.3	0.776
2435.53	0.774
2444.76	0.7589
2453.98	0.7479
2463.21	0.7338
2472.44	0.7148
2481.67	0.6821
2490.89	0.6509
2500.12	0.6081
2509.35	0.593
2518.57	0.5836
2527.8	0.5764
2537.03	0.5611
2546.26	0.5473
2555.48	0.534
2564.71	0.5256
2573.94	0.5064
2583.17	0.479
2592.39	0.4537
2601.62	0.4754
2610.85	0.4992
2620.07	0.5414
2629.3	0.5397
2638.53	0.5335
2647.76	0.5145
2656.98	0.505
2666.21	0.4879
2675.44	0.4597
2684.67	0.4177
2693.89	0.3917
2703.12	0.3901
2712.35	0.4188
2721.57	0.4539
2730.8	0.4767
2740.03	0.4898
2749.26	0.496
2758.48	0.4913
2767.71	0.4692
2776.94	0.4527
2786.16	0.431
2795.39	0.4059
2804.62	0.3816
2813.85	0.3567
2823.07	0.3414
2832.3	0.3223
2841.53	0.3122
2850.76	0.2933
2859.98	0.2811
2869.21	0.266
2878.44	0.24
2887.66	0.2189
2896.89	0.2009
2906.12	0.185
2915.35	0.182
2924.57	0.18
2933.8	0.1853
2943.03	0.1878
2952.25	0.1845
2961.48	0.211
2970.71	0.2284
2979.94	0.2273
2989.16	0.2187
2998.39	0.1968
3007.62	0.19
3016.85	0.1877
3026.07	0.1883
3035.3	0.1934
3044.53	0.1974
3053.75	0.2018
3062.98	0.206
3072.21	0.2085
3081.44	0.2145
3090.66	0.215
3099.89	0.214
3109.12	0.218
3118.35	0.2286
3127.57	0.2398
3136.8	0.2502
3146.03	0.266
3155.25	0.2819
3164.48	0.2977
3173.71	0.3104
3182.94	0.3376
3192.16	0.3492
3201.39	0.3748
3210.62	0.3918
3219.84	0.4126
3229.07	0.4453
3238.3	0.4592
3247.53	0.485
3256.75	0.508
3265.98	0.5308
3275.21	0.5627
3284.44	0.5879
3293.66	0.609
3302.89	0.6329
3312.12	0.659
3321.34	0.6791
3330.57	0.7031
3339.8	0.7241
3349.03	0.7444
3358.25	0.7592
3367.48	0.7751
3376.71	0.7883
3385.94	0.8052
3395.16	0.8158
3404.39	0.8347
3413.62	0.8504
3422.84	0.8663
3432.07	0.8728
3441.3	0.8856
3450.53	0.8963
3459.75	0.9034
3468.98	0.913
3478.21	0.9182
3487.43	0.9192
3496.66	0.916
3505.89	0.9091
3515.12	0.9041
3524.34	0.899
3533.57	0.9146
3542.8	0.9417
3552.03	0.9642
3561.25	0.9726
3570.48	0.9792
3579.71	0.981
3588.93	0.982
3598.16	0.986
3607.39	0.988
3616.62	0.987
3625.84	0.987
3635.07	0.9895
3644.3	0.9887
3653.53	0.9852
3662.75	0.985
3671.98	0.981
3681.21	0.9896
3690.43	0.9929
3699.66	0.998
3708.89	0.998
3718.12	0.998
3727.34	1.001
3736.57	1.002
3745.8	1
3755.02	0.998
3764.25	0.998
3773.48	0.998
3782.71	0.998
3791.93	0.998
3801.16	0.998
