Infrared Spectrum: Acetic acid, chloro-
Formula: C2 H3 Cl O2
CAS: 79-11-8
State: SOLUTION (1% CCl4 FOR 3800-1330, 1% CS2 FOR 1330-400 CM^-^1)
Class: COBLENTZ III
Instrument: DOW KBr FOREPRISM-GRATING
Instrument parameters: BLAZED AT 3.5, 12.0, 20.0 MICRON AND CHANGED AT 5.0, 7.5, 14.9 MICRON
Sampling: TRANSMISSION
Path length: 0.01 CM, 0.01 CM
Resolution: 2
Origin: DOW CHEMICAL COMPANY
1/CM	TRANSMITTANCE
387	0.1115
396	0.1139
405	0.1232
414	0.2374
423	0.3242
432	0.3907
441	0.3893
450	0.3448
459	0.3441
468	0.5995
477	0.7436
486	0.7861
495	0.8137
504	0.8377
513	0.8575
522	0.8718
531	0.882
540	0.8859
549	0.8806
558	0.8631
567	0.8328
576	0.7674
585	0.7236
594	0.7126
603	0.7079
612	0.6692
621	0.6467
630	0.6053
639	0.4695
648	0.326
657	0.2758
666	0.3373
675	0.3928
684	0.4753
693	0.6247
702	0.66
711	0.6829
720	0.7011
729	0.7127
738	0.7176
747	0.7151
756	0.703
765	0.6706
774	0.5954
783	0.5057
792	0.3049
801	0.1304
810	0.3159
819	0.5306
828	0.538
837	0.4233
846	0.1366
855	0.0823
864	0.1044
873	0.139
882	0.1751
891	0.2142
900	0.203
909	0.1808
918	0.1805
927	0.1271
936	0.2694
945	0.4835
954	0.616
963	0.6921
972	0.7576
981	0.7918
990	0.815
999	0.827
1008	0.8339
1017	0.8373
1026	0.8445
1035	0.8488
1044	0.8684
1053	0.8934
1062	0.9033
1071	0.8976
1080	0.8747
1089	0.8326
1098	0.7559
1107	0.697
1116	0.6911
1125	0.7447
1134	0.6944
1143	0.6292
1152	0.6352
1161	0.6508
1170	0.6447
1179	0.6068
1188	0.5345
1197	0.3529
1206	0.0932
1215	0.0241
1224	0.3029
1233	0.5237
1242	0.5659
1251	0.5395
1260	0.3613
1269	0.3115
1278	0.224
1287	0.1004
1296	0.1105
1305	0.1781
1314	0.3737
1323	0.6102
1332	0.6847
1341	0.7005
1350	0.6953
1359	0.6813
1368	0.6839
1377	0.6748
1386	0.6263
1395	0.472
1404	0.2855
1413	0.194
1422	0.0526
1431	0.1416
1440	0.3183
1449	0.4983
1458	0.5826
1467	0.5845
1476	0.5203
1485	0.4
1494	0.2831
1503	0.1665
1512	0.0872
1521	0.041
1530	0.0195
1539	0.0099
1548	0.0086
1557	0.0097
1566	0.019
1575	0.0267
1584	0.0392
1593	0.0889
1602	0.2785
1611	0.4352
1620	0.5768
1629	0.6353
1638	0.656
1647	0.6394
1656	0.5898
1665	0.5325
1674	0.4732
1683	0.4113
1692	0.3216
1701	0.2054
1710	0.0268
1719	0.007
1728	0.0065
1737	0.01
1746	0.0429
1755	0.1919
1764	0.2967
1773	0.4074
1782	0.4241
1791	0.3902
1800	0.5048
1809	0.5194
1818	0.5509
1827	0.63
1836	0.657
1845	0.6707
1854	0.6769
1863	0.6922
1872	0.7163
1881	0.7302
1890	0.7381
1899	0.7434
1908	0.7503
1917	0.7596
1926	0.7626
1935	0.7614
1944	0.7587
1953	0.7558
1962	0.8148
1971	0.7482
1980	0.743
1989	0.737
1998	0.728
2007	0.7321
2016	0.7385
2025	0.7512
2034	0.7598
2043	0.7641
2052	0.7671
2061	0.7706
2070	0.7744
2079	0.7756
2088	0.7741
2097	0.7724
2106	0.7684
2115	0.7625
2124	0.7539
2133	0.7552
2142	0.763
2151	0.7725
2160	0.7773
2169	0.7759
2178	0.7723
2187	0.7669
2196	0.7609
2205	0.7541
2214	0.7473
2223	0.7415
2232	0.74
2241	0.7376
2250	0.7304
2259	0.7143
2268	0.6848
2277	0.654
2286	0.6184
2295	0.6044
2304	0.6063
2313	0.6101
2322	0.6142
2331	0.6186
2340	0.6237
2349	0.6393
2358	0.6597
2367	0.671
2376	0.6736
2385	0.6724
2394	0.6677
2403	0.6609
2412	0.6529
2421	0.645
2430	0.6378
2439	0.6308
2448	0.6223
2457	0.6124
2466	0.5976
2475	0.569
2484	0.5274
2493	0.4843
2502	0.4584
2511	0.4458
2520	0.4418
2529	0.4325
2538	0.4164
2547	0.4019
2556	0.3851
2565	0.3648
2574	0.3447
2583	0.3208
2592	0.3081
2601	0.3166
2610	0.3755
2619	0.3957
2628	0.3949
2637	0.3892
2646	0.3781
2655	0.3563
2664	0.3297
2673	0.3006
2682	0.2694
2691	0.2444
2700	0.2435
2709	0.2768
2718	0.3039
2727	0.32
2736	0.3385
2745	0.3457
2754	0.3434
2763	0.3289
2772	0.3093
2781	0.2919
2790	0.2764
2799	0.2606
2808	0.241
2817	0.2247
2826	0.2093
2835	0.1936
2844	0.1749
2853	0.1603
2862	0.1485
2871	0.1355
2880	0.1221
2889	0.1071
2898	0.0954
2907	0.0898
2916	0.0893
2925	0.091
2934	0.0927
2943	0.0946
2952	0.0987
2961	0.1123
2970	0.1214
2979	0.1177
2988	0.1088
2997	0.1007
3006	0.0945
3015	0.0907
3024	0.0915
3033	0.094
3042	0.0974
3051	0.1012
3060	0.1052
3069	0.1092
3078	0.1133
3087	0.1174
3096	0.1214
3105	0.125
3114	0.1287
3123	0.1325
3132	0.1374
3141	0.1463
3150	0.1588
3159	0.1741
3168	0.1927
3177	0.21
3186	0.2236
3195	0.2396
3204	0.2563
3213	0.273
3222	0.2916
3231	0.3097
3240	0.3288
3249	0.3593
3258	0.3959
3267	0.4153
3276	0.4416
3285	0.4726
3294	0.49
3303	0.5076
3312	0.5273
3321	0.5488
3330	0.5737
3339	0.5974
3348	0.6151
3357	0.6365
3366	0.6508
3375	0.6629
3384	0.6772
3393	0.6912
3402	0.7046
3411	0.7188
3420	0.7337
3429	0.7469
3438	0.7584
3447	0.7684
3456	0.7754
3465	0.7823
3474	0.7853
3483	0.7845
3492	0.7785
3501	0.7673
3510	0.7471
3519	0.7149
3528	0.6848
3537	0.6973
3546	0.754
3555	0.805
3564	0.8286
3573	0.8314
3582	0.8259
3591	0.8222
3600	0.8442
3609	0.848
3618	0.848
3627	0.8472
3636	0.846
3645	0.8439
3654	0.841
3663	0.838
3672	0.835
3681	0.8349
3690	0.8381
3699	0.8408
3708	0.842
3717	0.842
3726	0.8426
3735	0.8429
3744	0.8431
3753	0.8432
3762	0.8436
3771	0.8442
3780	0.8451
3789	0.846
3798	0.8468
