Infrared Spectrum: 1-Trimethylsilylmethanol
Formula: C 4 H 12 O Si
CAS: 3219-63-4
State: gas
Origin: EPA-IR VAPOR PHASE LIBRARY
1/CM	ABSORBANCE
549.8	0.001784
559.445	0.000612
569.09	0.001584
578.734	0.001684
588.379	0.002234
598.024	0.001974
607.669	0.001704
617.313	0.0010014
626.958	0.001614
636.603	0.001804
646.248	0.004084
655.893	0.007174
665.537	0.010514
675.182	0.014514
684.827	0.019484
694.472	0.025254
704.116	0.023624
713.761	0.019254
723.406	0.013754
733.051	0.013244
742.695	0.014274
752.34	0.016424
761.985	0.017884
771.63	0.017434
781.275	0.015674
790.919	0.016434
800.564	0.018394
810.209	0.022934
819.854	0.033294
829.498	0.058754
839.143	0.103404
848.788	0.158134
858.433	0.177664
868.078	0.126224
877.722	0.071744
887.367	0.042404
897.012	0.027734
906.657	0.018714
916.301	0.013074
925.946	0.009204
935.591	0.007384
945.236	0.005774
954.88	0.005824
964.525	0.007754
974.17	0.012884
983.815	0.023874
993.46	0.032934
1003.1	0.035614
1012.75	0.025204
1022.39	0.011194
1032.04	0.006254
1041.68	0.004394
1051.33	0.003434
1060.97	0.003204
1070.62	0.003414
1080.26	0.003864
1089.91	0.004064
1099.55	0.003804
1109.2	0.004834
1118.84	0.005744
1128.49	0.006614
1138.13	0.006844
1147.78	0.007104
1157.42	0.007054
1167.07	0.007984
1176.71	0.006894
1186.36	0.005244
1196	0.004384
1205.64	0.004364
1215.29	0.006474
1224.93	0.009654
1234.58	0.022854
1244.22	0.040494
1253.87	0.058994
1263.51	0.050194
1273.16	0.035944
1282.8	0.023254
1292.45	0.015094
1302.09	0.009864
1311.74	0.007524
1321.38	0.006774
1331.03	0.006464
1340.67	0.006104
1350.32	0.005564
1359.96	0.005004
1369.61	0.004334
1379.25	0.004194
1388.9	0.004504
1398.54	0.005424
1408.18	0.006854
1417.83	0.008114
1427.47	0.008294
1437.12	0.007564
1446.76	0.005854
1456.41	0.004324
1466.05	0.003374
1475.7	0.002864
1485.34	0.002574
1494.99	0.002214
1504.63	0.001884
1514.28	0.001674
1523.92	0.001464
1533.57	0.001334
1543.21	0.0012367
1552.86	0.000952
1562.5	0.0008361
1572.15	0.0007894
1581.79	0.0008031
1591.44	0.0009377
1601.08	0.0005747
1610.73	0.0007265
1620.37	0.0005249
1630.01	0.0004959
1639.66	0.0004422
1649.3	0.00036061
1658.95	0.0005079
1668.59	0.0004116
1678.24	0.00033776
1687.88	0.00036663
1697.53	0.0002579
1707.17	0.000131
1716.82	0.000124
1726.46	0.000134
1736.11	8.5e-05
1745.75	0.000125
1755.4	0.0003981
1765.04	0.0003833
1774.69	0.0002387
1784.33	0.00028633
1793.98	0.000297199
1803.62	0.00036117
1813.27	0.000501
1822.91	0.0008295
1832.55	0.0008799
1842.2	0.0009302
1851.84	0.0010198
1861.49	0.000824
1871.13	0.000726
1880.78	0.0006165
1890.42	0.0007296
1900.07	0.0007806
1909.71	0.0008146
1919.36	0.001344
1929	0.0011717
1938.65	0.001644
1948.29	0.001784
1957.94	0.001714
1967.58	0.001794
1977.23	0.001704
1986.87	0.001504
1996.52	0.0012239
2006.16	0.0010444
2015.81	0.000744
2025.45	0.0006026
2035.1	0.00068
2044.74	0.0006266
2054.38	0.0005931
2064.03	0.000585
2073.67	0.0007059
2083.32	0.0007611
2092.96	0.0006775
2102.61	0.0007899
2112.25	0.0008809
2121.9	0.0009835
2131.54	0.000873
2141.19	0.0007351
2150.83	0.0006568
2160.48	0.0005729
2170.12	0.0005397
2179.77	0.0004387
2189.41	0.0006196
2199.06	0.0004523
2208.7	0.0006147
2218.35	0.0006113
2227.99	0.0005801
2237.64	0.0005824
2247.28	0.0005971
2256.92	0.0005854
2266.57	0.0006378
2276.21	0.000653
2285.86	0.0005881
2295.5	0.0006427
2305.15	0.0006362
2314.79	0.0007451
2324.44	0.0006027
2334.08	0.0007939
2343.73	0.0007637
2353.37	0.0005075
2363.02	0.0006635
2372.66	0.0005448
2382.31	0.00033289
2391.95	0.000293549
2401.6	0.0005732
2411.24	0.00037662
2420.89	0.0004431
2430.53	0.0005054
2440.18	0.0005669
2449.82	0.0005699
2459.47	0.0004367
2469.11	0.0007324
2478.75	0.0007051
2488.4	0.0007743
2498.04	0.0005999
2507.69	0.0009045
2517.33	0.0006212
2526.98	0.0003942
2536.62	0.0004256
2546.27	0.00034328
2555.91	0.00028919
2565.56	0.0004637
2575.2	0.00033429
2584.85	0.0005589
2594.49	0.000488
2604.14	0.0006328
2613.78	0.0008353
2623.43	0.0008774
2633.07	0.0007565
2642.72	0.0010751
2652.36	0.0008614
2662.01	0.0010703
2671.65	0.001239
2681.29	0.0011231
2690.94	0.0010734
2700.58	0.0009548
2710.23	0.0011662
2719.87	0.0012741
2729.52	0.001394
2739.16	0.001414
2748.81	0.001794
2758.45	0.002034
2768.1	0.002564
2777.74	0.003064
2787.39	0.004404
2797.03	0.006144
2806.68	0.009354
2816.32	0.013494
2825.97	0.017234
2835.61	0.017514
2845.26	0.016854
2854.9	0.017954
2864.55	0.022554
2874.19	0.029684
2883.84	0.034044
2893.48	0.034404
2903.12	0.030564
2912.77	0.024114
2922.41	0.017644
2932.06	0.015274
2941.7	0.021624
2951.35	0.036854
2960.99	0.048944
2970.64	0.039434
2980.28	0.022754
2989.93	0.009454
2999.57	0.005334
3009.22	0.004334
3018.86	0.004304
3028.51	0.004324
3038.15	0.004864
3047.8	0.005084
3057.44	0.005284
3067.09	0.005364
3076.73	0.005164
3086.38	0.004744
3096.02	0.004124
3105.67	0.003524
3115.31	0.003094
3124.95	0.002564
3134.6	0.002084
3144.24	0.001474
3153.89	0.001754
3163.53	0.0011504
3173.18	0.0011634
3182.82	0.001304
3192.47	0.0012386
3202.11	0.0011698
3211.76	0.0011859
3221.4	0.0005515
3231.05	0.0005305
3240.69	0.0005362
3250.34	0.0008234
3259.98	0.0005158
3269.63	0.0007174
3279.27	0.00038691
3288.92	0.0007529
3298.56	0.0004268
3308.21	0.0005915
3317.85	0.00052
3327.49	0.00028897
3337.14	0.0005686
3346.78	0.0004824
3356.43	0.0005504
3366.07	0.0006425
3375.72	0.0006341
3385.36	0.00036417
3395.01	0.0005496
3404.65	0.0005855
3414.3	0.000736
3423.94	0.0008195
3433.59	0.0011044
3443.23	0.0010358
3452.88	0.0009098
3462.52	0.001324
3472.17	0.0012499
3481.81	0.0010027
3491.46	0.0011729
3501.1	0.000914
3510.75	0.0011409
3520.39	0.0012772
3530.04	0.0011572
3539.68	0.0011581
3549.32	0.0009655
3558.97	0.0011197
3568.61	0.001534
3578.26	0.001304
3587.9	0.001694
3597.55	0.001634
3607.19	0.001914
3616.84	0.002004
3626.48	0.002714
3636.13	0.004034
3645.77	0.009154
3655.42	0.011814
3665.06	0.011414
3674.71	0.008154
3684.35	0.003394
3694	0.002494
3703.64	0.001994
3713.29	0.002224
3722.93	0.002044
3732.58	0.002094
3742.22	0.001784
3751.86	0.001764
3761.51	0.001554
3771.15	0.001584
3780.8	0.001644
3790.44	0.001474
3800.09	0.0011946
3809.73	0.001694
3819.38	0.001494
3829.02	0.0009829
3838.67	0.001384
3848.31	0.001314
3857.96	0.0010541
3867.6	0.0009048
3877.25	0.0012507
3886.89	0.0012307
3896.54	0.0009601
3906.18	0.001199
3915.83	0.0006534
3925.47	0.00030525
3935.12	0.0002751
3944.76	0.0006441
3954.41	0.0004818
3964.05	0.0008137
3973.69	0.0010193
3983.34	0.0004861
3992.98	0.0005564
