Infrared Spectrum: 1-Pentene, 4-methyl-
Formula: C 6 H 12
CAS: 691-37-2
State: gas
Origin: Sadtler Research Labs Under US-EPA Contract
1/CM	ABSORBANCE
450	0
462	0.0613236
474	0.0659794
486	0.0476222
498	0.0496176
510	0.0492185
522	0.0502827
534	0.051879
546	0.046558
558	0.0493515
570	0.0457599
582	0.0400399
594	0.0581311
606	0.0698371
618	0.086731
630	0.0905887
642	0.0666445
654	0.0571999
666	0.0502827
678	0.0419022
690	0.0472232
702	0.0493515
714	0.052278
726	0.0534752
738	0.0449618
750	0.0400399
762	0.0413702
774	0.0412371
786	0.0442967
798	0.0484204
810	0.0554706
822	0.0621217
834	0.0650482
846	0.0589292
858	0.0631859
870	0.0763552
882	0.092451
894	0.158696
906	0.323911
918	0.379648
930	0.243565
942	0.119588
954	0.086864
966	0.100033
978	0.135417
990	0.183572
1002	0.179847
1014	0.111606
1026	0.080878
1038	0.0796808
1050	0.0728966
1062	0.0597273
1074	0.0534752
1086	0.0525441
1098	0.0574659
1110	0.0622548
1122	0.0597273
1134	0.0566678
1146	0.0623878
1158	0.086598
1170	0.0961756
1182	0.0767543
1194	0.0526771
1206	0.0486864
1218	0.0494846
1230	0.0558697
1242	0.0594613
1254	0.0552045
1266	0.057599
1278	0.0611906
1290	0.0602594
1302	0.0560027
1314	0.057998
1326	0.0682408
1338	0.0919189
1350	0.0949784
1362	0.116129
1374	0.146724
1386	0.186232
1398	0.141803
1410	0.0928501
1422	0.0901896
1434	0.11573
1446	0.162953
1458	0.198337
1470	0.213768
1482	0.150316
1494	0.0932491
1506	0.0583971
1518	0.0500166
1530	0.0476222
1542	0.046159
1554	0.046159
1566	0.0442967
1578	0.0445627
1590	0.0456269
1602	0.0496176
1614	0.0587962
1626	0.0911208
1638	0.154041
1650	0.154307
1662	0.0770203
1674	0.0490855
1686	0.046425
1698	0.046026
1710	0.0509478
1722	0.0500166
1734	0.0441636
1746	0.0424343
1758	0.0419022
1770	0.0408381
1782	0.0408381
1794	0.0416362
1806	0.0444297
1818	0.0568008
1830	0.0713003
1842	0.0683738
1854	0.0473562
1866	0.040439
1878	0.0387097
1890	0.0385767
1902	0.0380446
1914	0.0375125
1926	0.0367143
1938	0.0369804
1950	0.0371134
1962	0.0381776
1974	0.0400399
1986	0.0392418
1998	0.0392418
2010	0.0387097
2022	0.0391088
2034	0.0391088
2046	0.0395078
2058	0.0408381
2070	0.0383106
2082	0.0360492
2094	0.0371134
2106	0.0377785
2118	0.0376455
2130	0.0369804
2142	0.0369804
2154	0.0369804
2166	0.0376455
2178	0.0377785
2190	0.0380446
2202	0.0387097
2214	0.0380446
2226	0.0376455
2238	0.0373795
2250	0.0380446
2262	0.0376455
2274	0.0388427
2286	0.0387097
2298	0.0383106
2310	0.0372464
2322	0.0353841
2334	0.0364483
2346	0.0432325
2358	0.0353841
2370	0.0477553
2382	0.0466911
2394	0.0409711
2406	0.0395078
2418	0.0401729
2430	0.0401729
2442	0.040439
2454	0.040572
2466	0.040705
2478	0.0399069
2490	0.040439
2502	0.040572
2514	0.040572
2526	0.0408381
2538	0.0408381
2550	0.0420353
2562	0.0421683
2574	0.0416362
2586	0.0424343
2598	0.0430995
2610	0.0427004
2622	0.0428334
2634	0.0428334
2646	0.0421683
2658	0.0427004
2670	0.0409711
2682	0.040306
2694	0.0453608
2706	0.0494846
2718	0.0536083
2730	0.0595943
2742	0.0613236
2754	0.0585301
2766	0.0561357
2778	0.0569338
2790	0.0601264
2802	0.0665115
2814	0.0795478
2826	0.106684
2838	0.148454
2850	0.185035
2862	0.239042
2874	0.404257
2886	0.515863
2898	0.605654
2910	0.698637
2922	0.700632
2934	0.68733
2946	0.749718
2958	1.08627
2970	1.26904
2982	0.918391
2994	0.362355
3006	0.226937
3018	0.169471
3030	0.117592
3042	0.0961756
3054	0.105354
3066	0.146857
3078	0.237579
3090	0.243964
3102	0.152178
3114	0.0720985
3126	0.0560027
3138	0.0538743
3150	0.0546725
3162	0.0530762
3174	0.0553376
3186	0.0544064
3198	0.0525441
3210	0.0489525
3222	0.0454939
3234	0.0415032
3246	0.0420353
3258	0.0436315
3270	0.0432325
3282	0.0442967
3294	0.0433655
3306	0.0438976
3318	0.0453608
3330	0.0425674
3342	0.0417692
3354	0.0420353
3366	0.0413702
3378	0.0430995
3390	0.0444297
3402	0.0401729
3414	0.0419022
3426	0.0421683
3438	0.0381776
3450	0.0381776
3462	0.0385767
3474	0.0375125
3486	0.0395078
3498	0.0380446
3510	0.0375125
3522	0.0388427
3534	0.0393748
3546	0.0371134
3558	0.0373795
3570	0.0371134
3582	0.0377785
3594	0.0364483
3606	0.0375125
3618	0.0361823
3630	0.0361823
3642	0.0380446
3654	0.0373795
3666	0.0368474
3678	0.0364483
3690	0.0393748
3702	0.0396409
3714	0.0393748
3726	0.0380446
3738	0.0393748
3750	0.0396409
3762	0.040439
3774	0.0411041
3786	0.040306
3798	0.0401729
3810	0.0379116
3822	0.0400399
3834	0.0391088
3846	0.0369804
3858	0.040306
3870	0.0376455
3882	0.0399069
3894	0.040306
3906	0.0428334
3918	0.0379116
3930	0.0353841
3942	0.0400399
3954	0.0397739
3966	0.0400399
