Infrared Spectrum: 4-Methyl-1-pentene
Formula: C6 H12
CAS: 691-37-2
State: SOLUTION (10% CCl4 FOR 3800-1330, 10% CS2 FOR 1330-450 CM^-^1)
Class: COBLENTZ III
Instrument: DOW KBr FOREPRISM-GRATING
Instrument parameters: BLAZED AT 3.5, 12.0, 20.0 MICRON AND CHANGED AT 5.0, 7.5, 14.9 MICRON
Sampling: TRANSMISSION
Path length: 0.011 CM, 0.011 CM
Resolution: 2
Origin: DOW CHEMICAL COMPANY
1/CM	TRANSMITTANCE
3800	0.9052
3791	0.9082
3782	0.9095
3773	0.912
3764	0.9132
3755	0.9139
3746	0.9141
3737	0.9149
3728	0.9144
3719	0.9128
3710	0.9141
3701	0.9144
3692	0.9137
3683	0.9135
3674	0.9143
3665	0.9154
3656	0.9166
3647	0.9176
3638	0.9182
3629	0.9186
3620	0.9203
3611	0.9207
3602	0.9205
3593	0.9214
3584	0.9218
3575	0.9213
3566	0.9213
3557	0.9215
3548	0.9226
3539	0.922
3530	0.9223
3521	0.921
3512	0.9209
3503	0.9214
3494	0.922
3485	0.9225
3476	0.923
3467	0.923
3458	0.9227
3449	0.9226
3440	0.9223
3431	0.9215
3422	0.9207
3413	0.9199
3404	0.9191
3395	0.9184
3386	0.9176
3377	0.9169
3368	0.9161
3359	0.9152
3350	0.9144
3341	0.9135
3332	0.9125
3323	0.9116
3314	0.9108
3305	0.9114
3296	0.9099
3287	0.9095
3278	0.9099
3269	0.9098
3260	0.9088
3251	0.907
3242	0.9036
3233	0.8986
3224	0.8932
3215	0.8876
3206	0.8821
3197	0.8785
3188	0.8739
3179	0.8675
3170	0.8645
3161	0.8655
3152	0.8677
3143	0.8693
3134	0.8719
3125	0.8709
3116	0.8656
3107	0.8518
3098	0.8306
3089	0.6243
3080	0.3517
3071	0.5193
3062	0.5556
3053	0.7078
3044	0.7849
3035	0.7886
3026	0.7721
3017	0.7211
3008	0.6263
2999	0.4582
2990	0.4473
2981	0.2481
2972	0.0355
2963	0.0063
2954	0.0027
2945	0.0606
2936	0.083
2927	0.0461
2918	0.0771
2909	0.069
2900	0.0523
2891	0.12
2882	0.1564
2873	0.0737
2864	0.1801
2855	0.4596
2846	0.4779
2837	0.4068
2828	0.6265
2819	0.7265
2810	0.7924
2801	0.816
2792	0.8275
2783	0.8383
2774	0.8516
2765	0.871
2756	0.8705
2747	0.8732
2738	0.8811
2729	0.8611
2720	0.8504
2711	0.8671
2702	0.8814
2693	0.8886
2684	0.8914
2675	0.8925
2666	0.8929
2657	0.8941
2648	0.8826
2639	0.8827
2630	0.8865
2621	0.8935
2612	0.8983
2603	0.8979
2594	0.8931
2585	0.8964
2576	0.8989
2567	0.8997
2558	0.8998
2549	0.9006
2540	0.902
2531	0.9075
2522	0.9116
2513	0.9118
2504	0.9115
2495	0.9111
2486	0.9108
2477	0.912
2468	0.9122
2459	0.9123
2450	0.9117
2441	0.9128
2432	0.9135
2423	0.9145
2414	0.9156
2405	0.9168
2396	0.9153
2387	0.9146
2378	0.9193
2369	0.9214
2360	0.9207
2351	0.9205
2342	0.9179
2333	0.9156
2324	0.9165
2315	0.9143
2306	0.9112
2297	0.9104
2288	0.9079
2279	0.9097
2270	0.9099
2261	0.9099
2252	0.9102
2243	0.9101
2234	0.9108
2225	0.9119
2216	0.9119
2207	0.9123
2198	0.9127
2189	0.9128
2180	0.914
2171	0.9162
2162	0.9161
2153	0.9169
2144	0.9179
2135	0.9183
2126	0.9185
2117	0.9187
2108	0.9193
2099	0.9199
2090	0.9205
2081	0.921
2072	0.9214
2063	0.9155
2054	0.9219
2045	0.9229
2036	0.9224
2027	0.9156
2018	0.9101
2009	0.9093
2000	0.915
1991	0.9133
1982	0.908
1973	0.9135
1964	0.9171
1955	0.9229
1946	0.9273
1937	0.9265
1928	0.9272
1919	0.9284
1910	0.9286
1901	0.9273
1892	0.9262
1883	0.9263
1874	0.9267
1865	0.9228
1856	0.9116
1847	0.8917
1838	0.8564
1829	0.8035
1820	0.8228
1811	0.8842
1802	0.9075
1793	0.9194
1784	0.9222
1775	0.9245
1766	0.9258
1757	0.9266
1748	0.9248
1739	0.9216
1730	0.9212
1721	0.9216
1712	0.9244
1703	0.9246
1694	0.9231
1685	0.9204
1676	0.9166
1667	0.9049
1658	0.887
1649	0.7954
1640	0.2523
1631	0.8028
1622	0.8597
1613	0.8764
1604	0.88
1595	0.8508
1586	0.8281
1577	0.8272
1568	0.7876
1559	0.7155
1550	0.7421
1541	0.7864
1532	0.8587
1523	0.8521
1514	0.8623
1505	0.8615
1496	0.8413
1487	0.7997
1478	0.5887
1469	0.1803
1460	0.3495
1451	0.5452
1442	0.4526
1433	0.7294
1424	0.7568
1415	0.7047
1406	0.809
1397	0.8176
1388	0.3585
1379	0.7099
1370	0.3084
1361	0.8269
1352	0.8584
1343	0.7544
1334	0.7486
1325	0.7944
1316	0.8427
1307	0.8451
1298	0.8347
1289	0.8598
1280	0.8514
1271	0.849
1262	0.8883
1253	0.9005
1244	0.8628
1235	0.8756
1226	0.9215
1217	0.9307
1208	0.9355
1199	0.9362
1190	0.9249
1181	0.8732
1172	0.6671
1163	0.798
1154	0.8612
1145	0.8916
1136	0.921
1127	0.9225
1118	0.8828
1109	0.9099
1100	0.889
1091	0.9155
1082	0.9246
1073	0.9192
1064	0.9142
1055	0.8733
1046	0.7866
1037	0.7954
1028	0.8532
1019	0.8539
1010	0.7356
1001	0.5391
992	0.12
983	0.7417
974	0.77
965	0.8216
956	0.825
947	0.8411
938	0.7861
929	0.6085
920	0.2557
911	0.0053
902	0.3832
893	0.7272
884	0.7879
875	0.7296
866	0.7784
857	0.863
848	0.9411
839	0.9221
830	0.7838
821	0.8373
812	0.9288
803	0.9486
794	0.9402
785	0.9459
776	0.9627
767	0.9656
758	0.9651
749	0.9659
740	0.9637
731	0.9564
722	0.9499
713	0.9536
704	0.9566
695	0.9579
686	0.9585
677	0.9565
668	0.9408
659	0.8887
650	0.8731
641	0.861
632	0.7494
623	0.6502
614	0.7855
605	0.9018
596	0.9282
587	0.9418
578	0.9487
569	0.9524
560	0.95
551	0.9438
542	0.9486
533	0.9544
524	0.9524
515	0.9458
506	0.9345
497	0.925
488	0.9228
479	0.9207
470	0.9104
461	0.8957
