Infrared Spectrum: 1-PENTENE, 4-METHYL-
Formula: C6 H12
CAS: 691-37-2
State: SOLUTION (10% IN CCl4 FOR 3800-1300, 10% IN CS2 FOR 1300-650, AND 10% IN CCl4 FOR 650-250 CM^-^1) VERSUS SOLVENT
Class: COBLENTZ III
Instrument: PERKIN-ELMER 521 (GRATING)
Instrument parameters: FILTERS AT 3150, 2500, 2000, 1150, 700, 410; GRATING CHANGES AT 2000, 630 CM^-^1
Sampling: TRANSMISSION
Path length: 0.011, 0.011, AND 0.010 CM (CsBr CELL)
Resolution: 4
Origin: DOW CORNING CORP.
1/CM	TRANSMITTANCE
248.98	0.956
258.164	0.956
267.347	0.953
276.531	0.947
285.715	0.946
294.898	0.946
304.082	0.941
313.266	0.938
322.45	0.935
331.633	0.934
340.817	0.931
350.001	0.932
359.184	0.932
368.368	0.932
377.552	0.932
386.735	0.92
395.919	0.928
405.103	0.931
414.287	0.927
423.47	0.92
432.654	0.935
441.838	0.909
451.021	0.898
460.205	0.912
469.389	0.909
478.572	0.901
487.756	0.895
496.94	0.895
506.124	0.897
515.307	0.898
524.491	0.9
533.675	0.894
542.858	0.89
552.042	0.893
561.226	0.895
570.409	0.897
579.593	0.893
588.777	0.873
597.96	0.83
607.144	0.728
616.328	0.628
625.512	0.668
634.695	0.7969
643.879	0.831
653.063	0.834
662.246	0.836
671.43	0.842
680.614	0.847
689.797	0.847
698.981	0.843
708.165	0.836
717.349	0.826
726.532	0.849
735.716	0.858
744.9	0.861
754.083	0.858
763.267	0.854
772.451	0.841
781.634	0.817
790.818	0.828
800.002	0.817
809.186	0.749
818.369	0.693
827.553	0.787
836.737	0.839
845.92	0.834
855.104	0.776
864.288	0.664
873.471	0.701
882.655	0.682
891.839	0.5539
901.023	0.2751
910.206	0.03
919.39	0.3998
928.574	0.6429
937.757	0.705
946.941	0.701
956.125	0.689
965.308	0.643
974.492	0.606
983.676	0.3538
992.859	0.2937
1002.04	0.661
1011.23	0.717
1020.41	0.713
1029.59	0.643
1038.78	0.689
1047.96	0.753
1057.15	0.779
1066.33	0.787
1075.51	0.784
1084.7	0.761
1093.88	0.757
1103.06	0.76
1112.25	0.764
1121.43	0.776
1130.61	0.769
1139.8	0.742
1148.98	0.679
1158.17	0.58
1167.35	0.6601
1176.53	0.773
1185.72	0.797
1194.9	0.8
1204.08	0.795
1213.27	0.784
1222.45	0.757
1231.64	0.752
1240.82	0.769
1250	0.765
1259.19	0.732
1268.37	0.717
1277.55	0.749
1286.74	0.797
1295.92	0.824
1305.11	0.831
1314.29	0.82
1323.47	0.736
1332.66	0.691
1341.84	0.797
1351.02	0.735
1360.21	0.5041
1369.39	0.634
1378.57	0.45
1387.76	0.735
1396.94	0.757
1406.13	0.665
1415.31	0.691
1424.49	0.639
1433.68	0.4231
1442.86	0.491
1452.04	0.3421
1461.23	0.186
1470.41	0.6529
1479.6	0.773
1488.78	0.821
1497.96	0.854
1507.15	0.871
1516.33	0.875
1525.51	0.894
1534.7	0.897
1543.88	0.898
1553.07	0.897
1562.25	0.894
1571.43	0.89
1580.62	0.887
1589.8	0.88
1598.98	0.846
1608.17	0.819
1617.35	0.798
1626.53	0.6789
1635.72	0.2671
1644.9	0.783
1654.09	0.843
1663.27	0.853
1672.45	0.857
1681.64	0.858
1690.82	0.861
1700	0.869
1709.19	0.872
1718.37	0.875
1727.56	0.875
1736.74	0.876
1745.92	0.878
1755.11	0.879
1764.29	0.878
1773.47	0.875
1782.66	0.875
1791.84	0.871
1801.02	0.852
1810.21	0.817
1819.39	0.753
1828.58	0.797
1837.76	0.856
1846.94	0.873
1856.13	0.876
1865.31	0.876
1874.49	0.879
1883.68	0.878
1892.86	0.878
1902.05	0.88
1911.23	0.879
1920.41	0.883
1929.6	0.883
1938.78	0.882
1947.96	0.882
1957.15	0.88
1966.33	0.873
1975.52	0.873
1984.7	0.882
1993.88	0.886
2003.07	0.888
2012.25	0.891
2021.43	0.891
2030.62	0.89
2039.8	0.889
2048.98	0.887
2058.17	0.886
2067.35	0.886
2076.54	0.8835
2085.72	0.882
2094.9	0.8794
2104.09	0.879
2113.27	0.879
2122.45	0.879
2131.64	0.879
2140.82	0.878
2150.01	0.878
2159.19	0.8778
2168.37	0.8754
2177.56	0.875
2186.74	0.873
2195.92	0.876
2205.11	0.878
2214.29	0.879
2223.47	0.878
2232.66	0.875
2241.84	0.873
2251.03	0.873
2260.21	0.873
2269.39	0.873
2278.58	0.873
2287.76	0.8752
2296.94	0.876
2306.13	0.8758
2315.31	0.8723
2324.5	0.873
2333.68	0.875
2342.86	0.8764
2352.05	0.88
2361.23	0.876
2370.41	0.873
2379.6	0.872
2388.78	0.872
2397.97	0.872
2407.15	0.872
2416.33	0.873
2425.52	0.873
2434.7	0.872
2443.88	0.871
2453.07	0.872
2462.25	0.871
2471.43	0.8682
2480.62	0.871
2489.8	0.8664
2498.99	0.864
2508.17	0.867
2517.35	0.8654
2526.54	0.8624
2535.72	0.86
2544.9	0.858
2554.09	0.8562
2563.27	0.852
2572.46	0.8529
2581.64	0.8553
2590.82	0.847
2600.01	0.846
2609.19	0.847
2618.37	0.849
2627.56	0.8461
2636.74	0.838
2645.92	0.8408
2655.11	0.847
2664.29	0.849
2673.48	0.847
2682.66	0.847
2691.84	0.846
2701.03	0.8343
2710.21	0.8238
2719.39	0.8052
2728.58	0.8087
2737.76	0.835
2746.95	0.8336
2756.13	0.823
2765.31	0.82
2774.5	0.8002
2783.68	0.784
2792.86	0.779
2802.05	0.7475
2811.23	0.702
2820.42	0.6293
2829.6	0.5452
2838.78	0.383
2847.97	0.4726
2857.15	0.4033
2866.33	0.1222
2875.52	0.121
2884.7	0.1414
2893.88	0.0993
2903.07	0.0682
2912.25	0.0811
2921.44	0.0785
2930.62	0.0703
2939.8	0.0914
2948.99	0.0062
2958.17	0.0051
2967.35	0.0162
2976.54	0.1081
2985.72	0.276
2994.91	0.4093
3004.09	0.5002
3013.27	0.6331
3022.46	0.6993
3031.64	0.7364
3040.82	0.7397
3050.01	0.7107
3059.19	0.6314
3068.38	0.4934
3077.56	0.336
3086.74	0.57
3095.93	0.7463
3105.11	0.8286
3114.29	0.836
3123.48	0.8434
3132.66	0.8467
3141.84	0.846
3151.03	0.843
3160.21	0.8406
3169.4	0.841
3178.58	0.8422
3187.76	0.845
3196.95	0.8497
3206.13	0.8608
3215.31	0.8648
3224.5	0.8718
3233.68	0.8753
3242.87	0.876
3252.05	0.876
3261.23	0.876
3270.42	0.875
3279.6	0.873
3288.78	0.872
3297.97	0.8694
3307.15	0.871
3316.33	0.871
3325.52	0.871
3334.7	0.872
3343.89	0.872
3353.07	0.873
3362.25	0.873
3371.44	0.873
3380.62	0.8737
3389.8	0.875
3398.99	0.8754
3408.17	0.878
3417.36	0.879
3426.54	0.878
3435.72	0.8794
3444.91	0.882
3454.09	0.882
3463.27	0.883
3472.46	0.883
3481.64	0.883
3490.83	0.879
3500.01	0.8751
3509.19	0.8739
3518.38	0.876
3527.56	0.8795
3536.74	0.883
3545.93	0.8854
3555.11	0.889
3564.29	0.891
3573.48	0.891
3582.66	0.891
3591.85	0.89
3601.03	0.89
3610.21	0.89
3619.4	0.89
3628.58	0.89
3637.76	0.89
3646.95	0.89
3656.13	0.89
3665.32	0.89
3674.5	0.889
3683.68	0.889
3692.87	0.89
3702.05	0.89
3711.23	0.89
3720.42	0.89
3729.6	0.89
3738.78	0.889
3747.97	0.887
3757.15	0.884
3766.34	0.884
3775.52	0.883
3784.7	0.8882
3793.89	0.8944
