Infrared Spectrum: Propanoic acid
Formula: C 3 H 6 O 2
CAS: 79-09-4
State: gas
Origin: Sadtler Research Labs Under US-EPA Contract
1/CM	ABSORBANCE
450	0.085274
462	0.0720171
474	0.0988891
486	0.087782
498	0.0935147
510	0.104264
522	0.125761
534	0.148692
546	0.202436
558	0.254747
570	0.301684
582	0.316911
594	0.322465
606	0.311716
618	0.297921
630	0.309566
642	0.217305
654	0.145826
666	0.110534
678	0.0820493
690	0.0702256
702	0.0668218
714	0.0551773
726	0.0455033
738	0.0372626
750	0.0315299
762	0.0270512
774	0.0297384
786	0.0492654
798	0.0684342
810	0.10713
822	0.0929773
834	0.0549981
846	0.0284844
858	0.0118237
870	0.00770332
882	0.00322465
894	0.00179147
906	0.00143318
918	0.00197062
930	0.0026872
942	0.00734503
954	0.0191687
966	0.0480114
978	0.0779289
990	0.0933356
1002	0.100681
1014	0.101935
1026	0.146721
1038	0.25618
1050	0.390899
1062	0.52508
1074	0.449122
1086	0.380329
1098	0.277857
1110	0.375134
1122	0.6426
1134	0.826405
1146	0.96811
1158	0.798996
1170	0.66159
1182	0.485488
1194	0.324794
1206	0.194733
1218	0.14081
1230	0.118237
1242	0.103368
1254	0.0919024
1266	0.0911858
1278	0.0935147
1290	0.0920816
1302	0.0822285
1314	0.0729128
1326	0.073092
1338	0.0924399
1350	0.137764
1362	0.211035
1374	0.267287
1386	0.269616
1398	0.194912
1410	0.125403
1422	0.111788
1434	0.101935
1446	0.111071
1458	0.118595
1470	0.100501
1482	0.0911858
1494	0.0508777
1506	0.0254389
1518	0.0175564
1530	0.0100322
1542	0.00537441
1554	0.00555356
1566	0.00555356
1578	0.00680759
1590	0.00931564
1602	0.012182
1614	0.0155858
1626	0.0127194
1638	0.0120028
1650	0.00716588
1662	0.00949479
1674	0.00788247
1686	0.0091365
1698	0.0132569
1710	0.0363668
1722	0.0915441
1734	0.199211
1746	0.409172
1758	0.92404
1770	1.51343
1782	1.50304
1794	1.53995
1806	0.72447
1818	0.301146
1830	0.114117
1842	0.0528484
1854	0.0293801
1866	0.019527
1878	0.0146901
1890	0.0111071
1902	0.00859906
1914	0.00644929
1926	0.00662844
1938	0.00716588
1950	0.00752417
1962	0.00698673
1974	0.00644929
1986	0.00501612
1998	0.00412038
2010	0.00322465
2022	0.00250806
2034	0.00340379
2046	0.0030455
2058	0.00214976
2070	0.00143318
2082	0.000179147
2094	0.000179147
2106	0.000537441
2118	0.00107488
2130	0.00197062
2142	0.00250806
2154	0.00232891
2166	0.0030455
2178	0.00394123
2190	0.00519526
2202	0.00555356
2214	0.00555356
2226	0.00501612
2238	0.00519526
2250	0.00501612
2262	0.00412038
2274	0.00483697
2286	0.00465782
2298	0.00555356
2310	0.00734503
2322	0.00662844
2334	0.00591185
2346	0.00555356
2358	0.00537441
2370	0.00483697
2382	0.00412038
2394	0.0030455
2406	0.00358294
2418	0.00394123
2430	0.00412038
2442	0.00340379
2454	0.00286635
2466	0.00232891
2478	0.00232891
2490	0.00322465
2502	0.00376209
2514	0.00447867
2526	0.00465782
2538	0.00447867
2550	0.00429953
2562	0.00376209
2574	0.00501612
2586	0.00412038
2598	0.00429953
2610	0.00214976
2622	0.00214976
2634	0.00161232
2646	0.00232891
2658	0.00340379
2670	0.00250806
2682	0.00394123
2694	0.00627014
2706	0.00555356
2718	0.00644929
2730	0.00734503
2742	0.00788247
2754	0.00931564
2766	0.00949479
2778	0.0103905
2790	0.0100322
2802	0.0103905
2814	0.0118237
2826	0.0150483
2838	0.0200645
2850	0.0229308
2862	0.0270512
2874	0.0378
2886	0.0686133
2898	0.0884986
2910	0.0997849
2922	0.10498
2934	0.127374
2946	0.19312
2958	0.213185
2970	0.225725
2982	0.23952
2994	0.281798
3006	0.222321
3018	0.139914
3030	0.0815119
3042	0.0521318
3054	0.0358294
3066	0.0279469
3078	0.0241848
3090	0.0232891
3102	0.0220351
3114	0.0214976
3126	0.0225725
3138	0.0202436
3150	0.0200645
3162	0.0197062
3174	0.0188104
3186	0.0179147
3198	0.0180938
3210	0.0157649
3222	0.0145109
3234	0.0128986
3246	0.0111071
3258	0.0112863
3270	0.0116446
3282	0.0100322
3294	0.0103905
3306	0.0102114
3318	0.00949479
3330	0.00824076
3342	0.00662844
3354	0.00680759
3366	0.00752417
3378	0.00698673
3390	0.006091
3402	0.00627014
3414	0.00644929
3426	0.00519526
3438	0.0057327
3450	0.00358294
3462	0.00340379
3474	0.00447867
3486	0.00286635
3498	0.006091
3510	0.00967394
3522	0.0164815
3534	0.0259763
3546	0.0386958
3558	0.161411
3570	0.42207
3582	0.464349
3594	0.392869
3606	0.0723754
3618	0.0125403
3630	0.0057327
3642	0.00698673
3654	0.00465782
3666	0.00465782
3678	0.00376209
3690	0.0026872
3702	0.00465782
3714	0.00179147
3726	0.00501612
3738	0.00465782
3750	0.00161232
3762	0.00627014
3774	0.0103905
3786	0.0091365
3798	0.00859906
3810	0.00537441
3822	0.00859906
3834	0.00770332
3846	0.00698673
3858	0.00412038
3870	0.000179147
3882	0.000179147
3894	0.000179147
3906	0.000179147
3918	0.00161232
3930	0.000716588
3942	0.00250806
3954	0.00250806
3966	0.000179147
