Infrared Spectrum: Propene, 3-fluoro-
Formula: C3 H5 F
CAS: 818-92-8
State: GAS (65 mmHg, N2 ADDED, TOTAL PRESSURE 600 mmHg)
Class: COBLENTZ
Instrument: DOW KBr FOREPRISM-GRATING
Instrument parameters: GRATING CHANGED AT 5.0, 7.5, 15.0 MICRON
Sampling: TRANSMISSION
Path length: 5 CM
Resolution: 2
Origin: DOW CHEMICAL COMPANY
1/CM	TRANSMITTANCE
451	0.8313
460	0.8293
469	0.8295
478	0.8333
487	0.8369
496	0.8314
505	0.8197
514	0.8035
523	0.7867
532	0.7775
541	0.7719
550	0.5232
559	0.7849
568	0.7908
577	0.8018
586	0.7761
595	0.7727
604	0.7061
613	0.7158
622	0.7478
631	0.7535
640	0.7639
649	0.7773
658	0.8034
667	0.8226
676	0.8357
685	0.8425
694	0.8451
703	0.8472
712	0.8482
721	0.8474
730	0.8459
739	0.845
748	0.8472
757	0.8511
766	0.8563
775	0.8617
784	0.8629
793	0.8628
802	0.8596
811	0.8543
820	0.8504
829	0.8485
838	0.8495
847	0.8498
856	0.8465
865	0.8363
874	0.8127
883	0.7699
892	0.6744
901	0.5272
910	0.3638
919	0.2671
928	0.2132
937	0.2367
946	0.2861
955	0.3556
964	0.3844
973	0.3219
982	0.1902
991	0.1998
1000	0.1056
1009	0.0389
1018	0.0263
1027	0.0573
1036	0.039
1045	0.2027
1054	0.4917
1063	0.642
1072	0.6782
1081	0.6568
1090	0.6073
1099	0.4706
1108	0.4685
1117	0.5668
1126	0.4701
1135	0.6257
1144	0.7334
1153	0.7783
1162	0.8051
1171	0.8198
1180	0.8471
1189	0.8588
1198	0.8671
1207	0.8703
1216	0.8628
1225	0.8354
1234	0.8114
1243	0.8003
1252	0.7969
1261	0.8262
1270	0.8437
1279	0.8425
1288	0.8495
1297	0.8497
1306	0.8486
1315	0.8473
1324	0.8353
1333	0.8137
1342	0.7652
1351	0.6715
1360	0.6232
1369	0.5977
1378	0.618
1387	0.7275
1396	0.6731
1405	0.6441
1414	0.5648
1423	0.4429
1432	0.496
1441	0.4938
1450	0.7055
1459	0.7479
1468	0.7498
1477	0.7474
1486	0.7874
1495	0.8182
1504	0.8412
1513	0.8401
1522	0.8438
1531	0.8443
1540	0.8528
1549	0.8443
1558	0.8647
1567	0.8478
1576	0.8465
1585	0.8438
1594	0.8469
1603	0.8465
1612	0.8438
1621	0.8392
1630	0.8282
1639	0.7962
1648	0.8026
1657	0.8046
1666	0.7952
1675	0.8329
1684	0.8515
1693	0.8539
1702	0.8539
1711	0.8567
1720	0.8539
1729	0.8553
1738	0.8528
1747	0.8563
1756	0.8515
1765	0.8535
1774	0.8495
1783	0.8492
1792	0.8497
1801	0.8485
1810	0.8477
1819	0.8461
1828	0.8438
1837	0.8211
1846	0.8019
1855	0.7919
1864	0.7601
1873	0.7757
1882	0.7731
1891	0.8127
1900	0.8333
1909	0.8374
1918	0.8441
1927	0.8364
1936	0.8357
1945	0.8298
1954	0.8303
1963	0.8296
1972	0.8295
1981	0.8291
1990	0.8269
1999	0.8276
2008	0.8286
2017	0.8289
2026	0.8262
2035	0.8237
2044	0.8267
2053	0.8301
2062	0.8362
2071	0.8434
2080	0.8485
2089	0.8503
2098	0.8506
2107	0.8507
2116	0.8505
2125	0.8503
2134	0.8502
2143	0.8502
2152	0.8502
2161	0.8503
2170	0.8507
2179	0.8509
2188	0.8513
2197	0.8517
2206	0.8522
2215	0.8531
2224	0.854
2233	0.8552
2242	0.8565
2251	0.8572
2260	0.8579
2269	0.8586
2278	0.8594
2287	0.8601
2296	0.861
2305	0.8618
2314	0.8625
2323	0.8632
2332	0.8661
2341	0.8679
2350	0.8705
2359	0.8718
2368	0.8682
2377	0.8626
2386	0.8577
2395	0.8559
2404	0.8559
2413	0.8571
2422	0.8609
2431	0.8625
2440	0.8631
2449	0.8629
2458	0.8632
2467	0.8637
2476	0.8642
2485	0.8648
2494	0.8658
2503	0.8667
2512	0.8676
2521	0.8676
2530	0.8673
2539	0.8669
2548	0.8666
2557	0.8663
2566	0.8658
2575	0.8652
2584	0.8647
2593	0.8644
2602	0.8641
2611	0.8632
2620	0.8668
2629	0.864
2638	0.8627
2647	0.8678
2656	0.867
2665	0.8649
2674	0.8617
2683	0.8579
2692	0.854
2701	0.85
2710	0.8458
2719	0.8416
2728	0.8361
2737	0.8354
2746	0.8368
2755	0.8291
2764	0.8372
2773	0.8481
2782	0.8547
2791	0.8552
2800	0.8525
2809	0.8483
2818	0.8424
2827	0.8382
2836	0.8391
2845	0.8384
2854	0.8155
2863	0.7425
2872	0.669
2881	0.5178
2890	0.5138
2899	0.4803
2908	0.4634
2917	0.476
2926	0.4576
2935	0.4117
2944	0.3246
2953	0.3238
2962	0.3059
2971	0.3728
2980	0.4413
2989	0.4948
2998	0.5302
3007	0.5706
3016	0.5834
3025	0.6376
3034	0.665
3043	0.6779
3052	0.7227
3061	0.7286
3070	0.7113
3079	0.6702
3088	0.5995
3097	0.5743
3106	0.566
3115	0.6492
3124	0.7155
3133	0.8024
3142	0.8462
3151	0.8595
3160	0.8648
3169	0.8676
3178	0.868
3187	0.868
3196	0.8678
3205	0.8684
3214	0.8688
3223	0.869
3232	0.8696
3241	0.8701
3250	0.8706
3259	0.8709
3268	0.8713
3277	0.8719
3286	0.8725
3295	0.8731
3304	0.8738
3313	0.8745
3322	0.875
3331	0.8756
3340	0.8761
3349	0.8764
3358	0.876
3367	0.8752
3376	0.8746
3385	0.8746
3394	0.875
3403	0.875
3412	0.8753
3421	0.8764
3430	0.8774
3439	0.8777
3448	0.8773
3457	0.8754
3466	0.8738
3475	0.8727
3484	0.8724
3493	0.8755
3502	0.8786
3511	0.8794
3520	0.8797
3529	0.8798
3538	0.8799
3547	0.8799
3556	0.8799
3565	0.8797
3574	0.8793
3583	0.8778
3592	0.8764
3601	0.8768
3610	0.878
3619	0.8751
3628	0.8754
3637	0.8787
3646	0.8754
3655	0.8765
3664	0.878
3673	0.8754
3682	0.8697
3691	0.8767
3700	0.8787
3709	0.8787
3718	0.8836
3727	0.8892
3736	0.887
3745	0.8831
3754	0.8815
3763	0.8806
3772	0.8808
3781	0.8822
3790	0.8848
3799	0.8829
