Infrared Spectrum: 1-Propanamine
Formula: C 3 H 9 N
CAS: 107-10-8
State: gas
Origin: Sadtler Research Labs Under US-EPA Contract
1/CM	ABSORBANCE
450	0.0392169
462	0.0307266
474	0.0270206
486	0.0162393
498	0.000539064
510	0.00882717
522	0.0125332
534	0.009501
546	0.0200128
558	0.0105791
570	0.0146221
582	0.0179239
594	0.019878
606	0.0267511
618	0.0328155
630	0.0362521
642	0.0435294
654	0.0390821
666	0.0470333
678	0.0558605
690	0.059297
702	0.0827463
714	0.116775
726	0.168592
738	0.262052
750	0.329503
762	0.375121
774	0.382735
786	0.322226
798	0.200195
810	0.131329
822	0.0866545
834	0.0731106
846	0.0731779
858	0.0764797
870	0.0827463
882	0.0859807
894	0.0850373
906	0.0733801
918	0.0554562
930	0.0483136
942	0.0421144
954	0.0453488
966	0.0606447
978	0.0594992
990	0.0589601
1002	0.0537716
1014	0.0426534
1026	0.0384083
1038	0.0357804
1050	0.0401603
1062	0.0720998
1074	0.0888108
1086	0.102018
1098	0.0635422
1110	0.0502003
1122	0.0324786
1134	0.0239883
1146	0.0171827
1158	0.0139483
1170	0.0146221
1182	0.0138135
1194	0.0152959
1206	0.0150264
1218	0.0126006
1230	0.0134092
1242	0.0153633
1254	0.0184629
1266	0.0221016
1278	0.0206866
1290	0.0279639
1302	0.0263468
1314	0.0291768
1326	0.0280313
1338	0.0433273
1350	0.0404298
1362	0.0611164
1374	0.075469
1386	0.0851047
1398	0.0888108
1410	0.0623293
1422	0.0452814
1434	0.0535695
1446	0.0743234
1458	0.107543
1470	0.0913713
1482	0.0785686
1494	0.0675851
1506	0.0603078
1518	0.04609
1530	0.0282335
1542	0.0334894
1554	0.0260772
1566	0.0247969
1578	0.0358478
1590	0.0472355
1602	0.0710217
1614	0.0962903
1626	0.10505
1638	0.0968294
1650	0.0663723
1662	0.0449445
1674	0.0444728
1686	0.0425861
1698	0.0310636
1710	0.0266837
1722	0.0295811
1734	0.0365216
1746	0.02446
1758	0.0199454
1770	0.0206866
1782	0.0148243
1794	0.0170479
1806	0.0101075
1818	0.0123311
1830	0.0129375
1842	0.0109834
1854	0.00828811
1866	0.00788381
1878	0.00579494
1890	0.00761428
1902	0.003167
1914	0.00404298
1926	0.00431251
1938	0.00128028
1950	0.00309962
1962	0.00175196
1974	0.00121289
1986	0.00215626
1998	0.000808596
2010	0.000606447
2022	0.00222364
2034	0.000741213
2046	0.00148243
2058	0.00161719
2070	0.00128028
2082	0.00134766
2094	0.00114551
2106	0.00128028
2118	0.00148243
2130	0.000943362
2142	0.00195411
2154	0.00195411
2166	0.00141504
2178	0.00215626
2190	0.00202149
2202	0.00168458
2214	0.00296485
2226	0.00154981
2238	0.00195411
2250	0.00283009
2262	0.000606447
2274	0.000943362
2286	0.00154981
2298	0.00148243
2310	0.00330177
2322	0.00377345
2334	0.00390821
2346	0.00599709
2358	0.00417775
2370	0.00518849
2382	0.00552541
2394	0.00411036
2406	0.00404298
2418	0.00404298
2430	0.00330177
2442	0.00363868
2454	0.00242579
2466	0.00370607
2478	0.00437989
2490	0.003167
2502	0.0039756
2514	0.00404298
2526	0.00269532
2538	0.00444728
2550	0.00559279
2562	0.00552541
2574	0.00768166
2586	0.00741213
2598	0.00707522
2610	0.00902932
2622	0.00902932
2634	0.0110508
2646	0.0140157
2658	0.0153633
2670	0.0169131
2682	0.0181934
2694	0.019002
2706	0.0218321
2718	0.0252686
2730	0.0319395
2742	0.0366564
2754	0.0380714
2766	0.0388126
2778	0.0378019
2790	0.0419796
2802	0.0583537
2814	0.0882043
2826	0.137798
2838	0.203564
2850	0.251406
2862	0.306997
2874	0.367372
2886	0.368113
2898	0.407061
2910	0.439472
2922	0.505979
2934	0.631513
2946	0.632255
2958	0.638184
2970	0.625449
2982	0.4609
2994	0.286041
3006	0.12513
3018	0.0546476
3030	0.0289073
3042	0.0190694
3054	0.0170479
3066	0.0170479
3078	0.0141504
3090	0.0142852
3102	0.0132745
3114	0.0101075
3126	0.0109834
3138	0.0101748
3150	0.00842287
3162	0.00923147
3174	0.00815334
3186	0.00660353
3198	0.00828811
3210	0.00599709
3222	0.00626662
3234	0.00667092
3246	0.00532326
3258	0.00437989
3270	0.00431251
3282	0.00485158
3294	0.0059297
3306	0.00505373
3318	0.00619924
3330	0.00929885
3342	0.00855764
3354	0.0111182
3366	0.0107139
3378	0.00788381
3390	0.00781643
3402	0.0067383
3414	0.00485158
3426	0.00613185
3438	0.00390821
3450	0.00478419
3462	0.00741213
3474	0.00296485
3486	0.00390821
3498	0.00330177
3510	0.00343653
3522	0.00289747
3534	0.00289747
3546	0.00916409
3558	0.0027627
3570	0.013544
3582	0.00256055
3594	0.00532326
3606	0.00283009
3618	0.00963577
3630	0.0140157
3642	0.00330177
3654	0.00741213
3666	0.00128028
3678	0.00741213
3690	0.0067383
3702	0.00390821
3714	0.009501
3726	0.0105791
3738	0.0108487
3750	0.00815334
3762	0.0035713
3774	0.000269532
3786	0.00154981
3798	0.00256055
3810	0.000336915
3822	0.00512111
3834	0.00128028
3846	0.000134766
3858	0.00437989
3870	0.00512111
3882	0.00539064
3894	0.00336915
3906	0.00249317
3918	0.00215626
3930	0.00121289
3942	0.00202149
3954	0
3966	0.000336915
