Infrared Spectrum: 1,3-Dioxolane
Formula: C 3 H 6 O 2
CAS: 646-06-0
State: gas
Origin: Sadtler Research Labs Under US-EPA Contract
1/CM	ABSORBANCE
450	0.00255435
462	0.00405691
474	0.00443255
486	0.00390666
498	0.00368127
510	0.00232897
522	0.00473306
534	0.00465794
546	0.00405691
558	0.0037564
570	0.00473306
582	0.00540922
594	0.0061605
606	0.00578486
618	0.00878998
630	0.0140489
642	0.0216369
654	0.0289243
666	0.0296004
678	0.0260694
690	0.0172043
702	0.0109687
714	0.00818895
726	0.0088651
738	0.00894023
750	0.0102925
762	0.00976664
774	0.0111189
786	0.0124712
798	0.0165282
810	0.018181
822	0.0235151
834	0.029375
846	0.0380899
858	0.0447012
870	0.0585247
882	0.0740762
894	0.135831
906	0.249049
918	0.414106
930	0.573001
942	0.514326
954	0.32568
966	0.172569
978	0.152585
990	0.101874
1002	0.0611542
1014	0.0819646
1026	0.152735
1038	0.241762
1050	0.283758
1062	0.345739
1074	0.362868
1086	0.480293
1098	0.645951
1110	0.745495
1122	0.695836
1134	0.555797
1146	0.42838
1158	0.306222
1170	0.242814
1182	0.197662
1194	0.146049
1206	0.0969151
1218	0.0771565
1230	0.0576232
1242	0.0476312
1254	0.0370381
1266	0.0288492
1278	0.0225384
1290	0.0170541
1302	0.0149505
1314	0.0142743
1326	0.0127718
1338	0.01172
1350	0.0120205
1362	0.0170541
1374	0.0292248
1386	0.0315538
1398	0.0309527
1410	0.0280979
1422	0.0109687
1434	0.00661126
1446	0.00758793
1458	0.0140489
1470	0.0184815
1482	0.0209607
1494	0.0259943
1506	0.0188571
1518	0.0138987
1530	0.0103677
1542	0.00480819
1554	0.00338076
1566	0.0024041
1578	0.00225384
1590	0.00180307
1602	0.00195333
1614	0.00150256
1626	0.00157769
1638	0.00157769
1650	0.00127718
1662	0.00247922
1674	0.00195333
1686	0.00277974
1698	0.00157769
1710	0.0018782
1722	0.00232897
1734	0.00435742
1746	0.00661126
1758	0.00721229
1770	0.00480819
1782	0.0032305
1794	0.00315538
1806	0.00315538
1818	0.00405691
1830	0.00488332
1842	0.0061605
1854	0.00999202
1866	0.0120205
1878	0.0128469
1890	0.0101423
1902	0.009391
1914	0.0088651
1926	0.00736254
1938	0.00878998
1950	0.0103677
1962	0.0126966
1974	0.0131474
1986	0.0116448
1998	0.00901536
2010	0.00728742
2022	0.00713716
2034	0.00818895
2046	0.00984177
2058	0.0100672
2070	0.0106682
2082	0.00901536
2094	0.00706203
2106	0.00555947
2118	0.00465794
2130	0.00450768
2142	0.00398178
2154	0.00405691
2166	0.0032305
2178	0.00308025
2190	0.00247922
2202	0.00255435
2214	0.00247922
2226	0.00255435
2238	0.00292999
2250	0.00353102
2262	0.00413204
2274	0.00435742
2286	0.0051087
2298	0.0051087
2310	0.0042823
2322	0.00308025
2334	0.000225384
2346	0.000601024
2358	0.00120205
2370	0
2382	0.000150256
2394	0.000976664
2406	0.00142743
2418	0.00142743
2430	0.00142743
2442	0.000901536
2454	0.00037564
2466	0.00037564
2478	0.000300512
2490	0.000676152
2502	0.00105179
2514	0.00150256
2526	0.00195333
2538	0.00300512
2550	0.0042823
2562	0.00540922
2574	0.00646101
2586	0.00833921
2598	0.00796357
2610	0.00901536
2622	0.0099169
2634	0.0114195
2646	0.0130723
2658	0.0157769
2670	0.0193079
2682	0.0235151
2694	0.0296004
2706	0.0336573
2718	0.0348594
2730	0.0372635
2742	0.0456778
2754	0.0613044
2766	0.0740762
2778	0.0777575
2790	0.0777575
2802	0.0922572
2814	0.133502
2826	0.21141
2838	0.299009
2850	0.405015
2862	0.446711
2874	0.489234
2886	0.485402
2898	0.476161
2910	0.447462
2922	0.410725
2934	0.387736
2946	0.376692
2958	0.436494
2970	0.369855
2982	0.344236
2994	0.274668
3006	0.208029
3018	0.164305
3030	0.114946
3042	0.0748275
3054	0.0430483
3066	0.0199089
3078	0.0110438
3090	0.0069869
3102	0.00420717
3114	0.0037564
3126	0.00210358
3138	0.00255435
3150	0.0024041
3162	0.000901536
3174	0.000601024
3186	0.00172794
3198	0.000676152
3210	0.000676152
3222	0.000225384
3234	0.00037564
3246	0.00075128
3258	0.00037564
3270	0.000901536
3282	0.000976664
3294	0.000976664
3306	0.00075128
3318	0.00150256
3330	0.00112692
3342	0.00150256
3354	0.0013523
3366	0.00120205
3378	0.00180307
3390	0.00142743
3402	0.00142743
3414	0.00232897
3426	0.00150256
3438	0.00157769
3450	0.00202846
3462	0.0018782
3474	0.00210358
3486	0.00225384
3498	0.00232897
3510	0.00308025
3522	0.00150256
3534	0.0032305
3546	0.00330563
3558	0.00247922
3570	0.00285486
3582	0.0032305
3594	0.00330563
3606	0.00270461
3618	0.00398178
3630	0.00277974
3642	0.00308025
3654	0.00225384
3666	0.00270461
3678	0.00277974
3690	0.00210358
3702	0.00217871
3714	0.00150256
3726	0.00232897
3738	0.00210358
3750	0.0024041
3762	0.00202846
3774	0.00255435
3786	0.00202846
3798	0.00255435
3810	0.00232897
3822	0.00345589
3834	0.00315538
3846	0.00353102
3858	0.00345589
3870	0.00390666
3882	0.00308025
3894	0.00390666
3906	0.00405691
3918	0.0051087
3930	0.00570973
3942	0.00623562
3954	0.00578486
3966	0.00473306
