Infrared Spectrum: Ethane, iodo-
Formula: C2 H5 I
CAS: 75-03-6
State: GAS (50 mmHg, N2 ADDED, TOTAL PRESSURE 600 mmHg)
Class: COBLENTZ
Instrument: DOW KBr FOREPRISM-GRATING
Instrument parameters: GRATING CHANGED AT 5.0, 7.5, 15.0 MICRON
Sampling: TRANSMISSION
Path length: 5 CM
Resolution: 2
Origin: DOW CHEMICAL COMPANY
1/CM	TRANSMITTANCE
460	0.8565
469	0.8513
478	0.8451
487	0.8276
496	0.7843
505	0.688
514	0.6988
523	0.6393
532	0.8433
541	0.8483
550	0.8495
559	0.8515
568	0.8544
577	0.8575
586	0.8606
595	0.8635
604	0.8654
613	0.8663
622	0.8669
631	0.8676
640	0.868
649	0.8677
658	0.8694
667	0.875
676	0.8719
685	0.8656
694	0.8595
703	0.8528
712	0.8239
721	0.8269
730	0.8133
739	0.8007
748	0.789
757	0.7972
766	0.8105
775	0.8183
784	0.8424
793	0.8499
802	0.8546
811	0.8683
820	0.8687
829	0.866
838	0.8658
847	0.8718
856	0.8745
865	0.8751
874	0.8753
883	0.8755
892	0.8744
901	0.8726
910	0.8693
919	0.864
928	0.847
937	0.7926
946	0.6504
955	0.6433
964	0.6134
973	0.8029
982	0.8299
991	0.8253
1000	0.8477
1009	0.8505
1018	0.8574
1027	0.8681
1036	0.88
1045	0.8788
1054	0.8783
1063	0.876
1072	0.8724
1081	0.8751
1090	0.8788
1099	0.8799
1108	0.8781
1117	0.8759
1126	0.8742
1135	0.8715
1144	0.8689
1153	0.8698
1162	0.8592
1171	0.8311
1180	0.7737
1189	0.6188
1198	0.2885
1207	0.1466
1216	0.0875
1225	0.1607
1234	0.4488
1243	0.5978
1252	0.8239
1261	0.8408
1270	0.8515
1279	0.8618
1288	0.8665
1297	0.8654
1306	0.864
1315	0.8622
1324	0.859
1333	0.8518
1342	0.83
1351	0.7916
1360	0.7197
1369	0.6638
1378	0.6369
1387	0.6598
1396	0.6626
1405	0.7153
1414	0.7226
1423	0.7031
1432	0.6731
1441	0.659
1450	0.5715
1459	0.6294
1468	0.7018
1477	0.7092
1486	0.7698
1495	0.799
1504	0.8222
1513	0.8121
1522	0.8173
1531	0.8261
1540	0.8392
1549	0.8515
1558	0.8376
1567	0.8558
1576	0.8404
1585	0.8604
1594	0.86
1603	0.8585
1612	0.8544
1621	0.8342
1630	0.857
1639	0.8528
1648	0.8407
1657	0.846
1666	0.8485
1675	0.8329
1684	0.8
1693	0.8503
1702	0.799
1711	0.8428
1720	0.7996
1729	0.8371
1738	0.8289
1747	0.8317
1756	0.8429
1765	0.8406
1774	0.8503
1783	0.853
1792	0.8488
1801	0.8561
1810	0.8604
1819	0.8604
1828	0.8602
1837	0.8606
1846	0.8576
1855	0.8618
1864	0.8595
1873	0.863
1882	0.8602
1891	0.8555
1900	0.8541
1909	0.8528
1918	0.8552
1927	0.861
1936	0.8587
1945	0.8574
1954	0.8562
1963	0.8574
1972	0.8586
1981	0.8592
1990	0.8604
1999	0.8663
2008	0.866
2017	0.866
2026	0.8657
2035	0.8653
2044	0.865
2053	0.8642
2062	0.8633
2071	0.8625
2080	0.8621
2089	0.8617
2098	0.8617
2107	0.8617
2116	0.8614
2125	0.8606
2134	0.8575
2143	0.8523
2152	0.8451
2161	0.8423
2170	0.8432
2179	0.8476
2188	0.8536
2197	0.8581
2206	0.8607
2215	0.8628
2224	0.8642
2233	0.8651
2242	0.866
2251	0.8672
2260	0.8687
2269	0.87
2278	0.8708
2287	0.8716
2296	0.8717
2305	0.8717
2314	0.8716
2323	0.871
2332	0.8705
2341	0.8702
2350	0.8705
2359	0.8704
2368	0.8694
2377	0.8669
2386	0.8645
2395	0.8612
2404	0.8557
2413	0.8473
2422	0.8461
2431	0.8469
2440	0.8517
2449	0.8628
2458	0.8668
2467	0.8684
2476	0.8698
2485	0.8711
2494	0.872
2503	0.8727
2512	0.8733
2521	0.8737
2530	0.874
2539	0.8741
2548	0.8743
2557	0.8744
2566	0.8747
2575	0.8749
2584	0.8748
2593	0.8741
2602	0.8733
2611	0.8717
2620	0.8699
2629	0.8667
2638	0.8628
2647	0.8619
2656	0.8638
2665	0.8668
2674	0.8696
2683	0.8708
2692	0.8705
2701	0.8694
2710	0.8673
2719	0.8635
2728	0.8573
2737	0.853
2746	0.8525
2755	0.8621
2764	0.8736
2773	0.8752
2782	0.8728
2791	0.8693
2800	0.8645
2809	0.8574
2818	0.8488
2827	0.8422
2836	0.8411
2845	0.8282
2854	0.7872
2863	0.6837
2872	0.613
2881	0.5754
2890	0.6593
2899	0.7197
2908	0.6718
2917	0.518
2926	0.4335
2935	0.4339
2944	0.5426
2953	0.622
2962	0.5362
2971	0.4334
2980	0.4014
2989	0.3946
2998	0.5291
3007	0.5945
3016	0.5942
3025	0.6879
3034	0.7615
3043	0.8012
3052	0.8289
3061	0.8525
3070	0.864
3079	0.8684
3088	0.8702
3097	0.871
3106	0.871
3115	0.8711
3124	0.8713
3133	0.8713
3142	0.8711
3151	0.8701
3160	0.8686
3169	0.8665
3178	0.8637
3187	0.8609
3196	0.8582
3205	0.8576
3214	0.8551
3223	0.8569
3232	0.8598
3241	0.8655
3250	0.8714
3259	0.8755
3268	0.8774
3277	0.8785
3286	0.8794
3295	0.88
3304	0.8798
3313	0.8788
3322	0.8785
3331	0.8784
3340	0.8787
3349	0.8787
3358	0.876
3367	0.8756
3376	0.8811
3385	0.8821
3394	0.8817
3403	0.8814
3412	0.8814
3421	0.8813
3430	0.881
3439	0.8807
3448	0.8796
3457	0.8783
3466	0.8775
3475	0.8771
3484	0.8776
3493	0.8788
3502	0.8806
3511	0.8817
3520	0.8823
3529	0.8771
3538	0.8761
3547	0.8777
3556	0.8821
3565	0.8824
3574	0.8781
3583	0.8745
3592	0.8713
3601	0.8685
3610	0.8712
3619	0.8754
3628	0.8597
3637	0.8725
3646	0.8724
3655	0.8633
3664	0.8685
3673	0.8729
3682	0.8699
3691	0.8702
3700	0.8752
3709	0.8694
3718	0.8575
3727	0.8472
3736	0.8733
3745	0.8775
