Infrared Spectrum: Ethane, iodo-
Formula: C 2 H 5 I
CAS: 75-03-6
State: gas
Origin: Sadtler Research Labs Under US-EPA Contract
1/CM	ABSORBANCE
450	0
462	0.0166548
474	0.0203152
486	0.0474022
498	0.103406
510	0.0987393
522	0.0828166
534	0.0103406
546	0.0107067
558	0.0192171
570	0.0113472
582	0.0103406
594	0.0172954
606	0.0131774
618	0.0160143
630	0.0187595
642	0.0205898
654	0.0124454
666	0.0192171
678	0.0159227
690	0.0237011
702	0.027453
714	0.0353229
726	0.0442908
738	0.0474937
750	0.0465786
762	0.0427352
774	0.0348653
786	0.0269954
798	0.0206813
810	0.0153737
822	0.0140925
834	0.0142756
846	0.013818
858	0.0139095
870	0.0144586
882	0.0123538
894	0.0130859
906	0.0155567
918	0.027087
930	0.0701882
942	0.132781
954	0.14184
966	0.129395
978	0.0494154
990	0.0492324
1002	0.0379767
1014	0.0320285
1026	0.0269039
1038	0.0159227
1050	0.0151907
1062	0.0149161
1074	0.0157397
1086	0.0144586
1098	0.0148246
1110	0.0172039
1122	0.0207728
1134	0.0245247
1146	0.0258058
1158	0.0318455
1170	0.0727504
1182	0.187229
1194	0.565257
1206	0.858547
1218	0.903478
1230	0.492415
1242	0.156208
1254	0.0554551
1266	0.0312049
1278	0.023152
1290	0.0163803
1302	0.0156482
1314	0.0149161
1326	0.0152822
1338	0.018668
1350	0.0249822
1362	0.0361464
1374	0.0546315
1386	0.0560956
1398	0.0888562
1410	0.0946213
1422	0.107433
1434	0.115394
1446	0.133879
1458	0.103955
1470	0.0910524
1482	0.0714693
1494	0.050056
1506	0.0360549
1518	0.0267209
1530	0.0217794
1542	0.0166548
1554	0.0149161
1566	0.0137265
1578	0.0144586
1590	0.0137265
1602	0.0142756
1614	0.0141841
1626	0.0146416
1638	0.0152822
1650	0.0158312
1662	0.0161058
1674	0.0164718
1686	0.0167463
1698	0.0172039
1710	0.0164718
1722	0.0166548
1734	0.0159227
1746	0.0148246
1758	0.0148246
1770	0.014001
1782	0.0130859
1794	0.0128114
1806	0.0120793
1818	0.0120793
1830	0.0122623
1842	0.0122623
1854	0.0118963
1866	0.0131774
1878	0.013452
1890	0.0152822
1902	0.0158312
1914	0.0160143
1926	0.0143671
1938	0.0150991
1950	0.0157397
1962	0.0165633
1974	0.0157397
1986	0.0151907
1998	0.0140925
2010	0.0130859
2022	0.0117133
2034	0.0117133
2046	0.0113472
2058	0.0110727
2070	0.0126284
2082	0.0130859
2094	0.0125369
2106	0.0130859
2118	0.0142756
2130	0.0165633
2142	0.0201322
2154	0.0225115
2166	0.0244332
2178	0.0215048
2190	0.0189426
2202	0.018119
2214	0.0170209
2226	0.0161058
2238	0.0143671
2250	0.0130859
2262	0.0128114
2274	0.0128114
2286	0.0135435
2298	0.0155567
2310	0.0175699
2322	0.0168378
2334	0.0132689
2346	0.0150991
2358	0.0148246
2370	0.00942553
2382	0.014001
2394	0.0161058
2406	0.0189426
2418	0.022969
2430	0.0214133
2442	0.0203152
2454	0.0148246
2466	0.0129029
2478	0.0112557
2490	0.0102491
2502	0.00924251
2514	0.00970006
2526	0.00960855
2538	0.00869345
2550	0.00841892
2562	0.00887647
2574	0.00860194
2586	0.00979157
2598	0.00960855
2610	0.00896798
2622	0.00960855
2634	0.0122623
2646	0.0153737
2658	0.0147331
2670	0.0150991
2682	0.0148246
2694	0.0122623
2706	0.0120793
2718	0.0128114
2730	0.0161058
2742	0.0194916
2754	0.023152
2766	0.0150076
2778	0.0121708
2790	0.0133605
2802	0.0151907
2814	0.0199492
2826	0.0277275
2838	0.0329436
2850	0.0422776
2862	0.0880326
2874	0.153279
2886	0.172405
2898	0.130127
2910	0.152456
2922	0.28423
2934	0.291276
2946	0.265287
2958	0.176523
2970	0.240397
2982	0.286518
2994	0.320743
3006	0.245155
3018	0.168927
3030	0.135801
3042	0.0777835
3054	0.0520692
3066	0.0311134
3078	0.0193086
3090	0.0154652
3102	0.0141841
3114	0.0129944
3126	0.0145501
3138	0.0144586
3150	0.0140925
3162	0.0155567
3174	0.0177529
3186	0.0194001
3198	0.0206813
3210	0.0208643
3222	0.0214133
3234	0.0228775
3246	0.0178444
3258	0.0144586
3270	0.0122623
3282	0.0106152
3294	0.0127199
3306	0.0130859
3318	0.0116218
3330	0.009151
3342	0.0115303
3354	0.0113472
3366	0.0107067
3378	0.0112557
3390	0.0119878
3402	0.0118048
3414	0.00924251
3426	0.0115303
3438	0.0109812
3450	0.0104321
3462	0.0106152
3474	0.0108897
3486	0.0111642
3498	0.0107982
3510	0.00979157
3522	0.0114387
3534	0.0109812
3546	0.0117133
3558	0.0100661
3570	0.00988308
3582	0.0105236
3594	0.0101576
3606	0.0132689
3618	0.0118963
3630	0.0112557
3642	0.0104321
3654	0.0148246
3666	0.0105236
3678	0.0129944
3690	0.0107067
3702	0.0111642
3714	0.0107982
3726	0.0111642
3738	0.013818
3750	0.0118963
3762	0.0135435
3774	0.00960855
3786	0.0131774
3798	0.0106152
3810	0.00905949
3822	0.0104321
3834	0.0145501
3846	0.0147331
3858	0.013635
3870	0.00878496
3882	0.0118048
3894	0.0139095
3906	0.00988308
3918	0.0113472
3930	0.0130859
3942	0.0149161
3954	0.00814439
3966	0.00814439
