Infrared Spectrum: Cyclopropanemethylamine
Formula: C 4 H 9 N
CAS: 2516-47-4
State: gas
Origin: EPA-IR VAPOR PHASE LIBRARY
1/CM	ABSORBANCE
549.8	0.01051
559.445	0.01063
569.09	0.01044
578.734	0.01137
588.379	0.01105
598.024	0.01168
607.669	0.01231
617.313	0.0128
626.958	0.01407
636.603	0.01531
646.248	0.017
655.893	0.01891
665.537	0.02041
675.182	0.02287
684.827	0.02737
694.472	0.03158
704.116	0.03777
713.761	0.04713
723.406	0.06044
733.051	0.07532
742.695	0.08509
752.34	0.09222
761.985	0.09417
771.63	0.08713
781.275	0.08053
790.919	0.07859
800.564	0.07012
810.209	0.06634
819.854	0.06135
829.498	0.05001
839.143	0.04334
848.788	0.03492
858.433	0.02942
868.078	0.02664
877.722	0.02612
887.367	0.02512
897.012	0.02422
906.657	0.02353
916.301	0.02264
925.946	0.02255
935.591	0.0241
945.236	0.02688
954.88	0.02863
964.525	0.03012
974.17	0.02838
983.815	0.02427
993.46	0.02569
1003.1	0.03504
1012.75	0.04352
1022.39	0.05128
1032.04	0.06147
1041.68	0.06147
1051.33	0.05796
1060.97	0.05064
1070.62	0.03338
1080.26	0.01951
1089.91	0.01165
1099.55	0.00822
1109.2	0.00679
1118.84	0.00736
1128.49	0.00628
1138.13	0.00767
1147.78	0.00607
1157.42	0.00797
1167.07	0.00765
1176.71	0.00845
1186.36	0.00966
1196	0.00832
1205.64	0.0088
1215.29	0.00733
1224.93	0.00489
1234.58	0.0062
1244.22	0.00519
1253.87	0.00629
1263.51	0.00699
1273.16	0.00761
1282.8	0.00774
1292.45	0.00827
1302.09	0.00932
1311.74	0.01069
1321.38	0.01326
1331.03	0.01548
1340.67	0.01569
1350.32	0.0152
1359.96	0.01523
1369.61	0.01612
1379.25	0.01808
1388.9	0.02109
1398.54	0.02213
1408.18	0.02094
1417.83	0.01899
1427.47	0.01565
1437.12	0.01366
1446.76	0.01401
1456.41	0.01376
1466.05	0.01342
1475.7	0.01204
1485.34	0.0095
1494.99	0.00773
1504.63	0.00651
1514.28	0.00591
1523.92	0.00566
1533.57	0.00574
1543.21	0.00594
1552.86	0.00674
1562.5	0.00761
1572.15	0.00919
1581.79	0.01201
1591.44	0.01663
1601.08	0.02338
1610.73	0.02829
1620.37	0.02961
1630.01	0.02717
1639.66	0.02151
1649.3	0.01447
1658.95	0.00967
1668.59	0.007
1678.24	0.00513
1687.88	0.00437
1697.53	0.00392
1707.17	0.00384
1716.82	0.0037
1726.46	0.0035
1736.11	0.00362
1745.75	0.00374
1755.4	0.00386
1765.04	0.00423
1774.69	0.00457
1784.33	0.0048
1793.98	0.00471
1803.62	0.00481
1813.27	0.00477
1822.91	0.00447
1832.55	0.00415
1842.2	0.00401
1851.84	0.00366
1861.49	0.00359
1871.13	0.00331
1880.78	0.00325
1890.42	0.00316
1900.07	0.00316
1909.71	0.00354
1919.36	0.00343
1929	0.00361
1938.65	0.00302
1948.29	0.00278
1957.94	0.00262
1967.58	0.00226
1977.23	0.00219
1986.87	0.00208
1996.52	0.00195
2006.16	0.00197
2015.81	0.00212
2025.45	0.00249
2035.1	0.003
2044.74	0.00366
2054.38	0.00381
2064.03	0.00389
2073.67	0.00386
2083.32	0.00338
2092.96	0.00275
2102.61	0.00252
2112.25	0.00196
2121.9	0.00181
2131.54	0.00171
2141.19	0.00148
2150.83	0.00147
2160.48	0.00141
2170.12	0.00131
2179.77	0.00129
2189.41	0.0014
2199.06	0.00147
2208.7	0.00149
2218.35	0.00147
2227.99	0.00137
2237.64	0.00146
2247.28	0.00136
2256.92	0.00147
2266.57	0.00128
2276.21	0.000943
2285.86	0.0009326
2295.5	0.0008028
2305.15	0.0007885
2314.79	0.0008449
2324.44	0.0009143
2334.08	0.0010474
2343.73	0.0008572
2353.37	0.0009008
2363.02	0.001041
2372.66	0.0009981
2382.31	0.0010415
2391.95	0.0011353
2401.6	0.0008128
2411.24	0.0010044
2420.89	0.00126
2430.53	0.0011001
2440.18	0.00137
2449.82	0.00151
2459.47	0.0016
2469.11	0.00174
2478.75	0.0017
2488.4	0.00176
2498.04	0.00145
2507.69	0.00145
2517.33	0.0011332
2526.98	0.00133
2536.62	0.00147
2546.27	0.0011813
2555.91	0.00137
2565.56	0.00146
2575.2	0.00139
2584.85	0.00179
2594.49	0.00178
2604.14	0.0017
2613.78	0.00201
2623.43	0.00226
2633.07	0.00256
2642.72	0.00316
2652.36	0.00338
2662.01	0.00394
2671.65	0.00405
2681.29	0.00454
2690.94	0.00442
2700.58	0.00446
2710.23	0.00493
2719.87	0.00549
2729.52	0.00601
2739.16	0.00683
2748.81	0.00789
2758.45	0.0086
2768.1	0.00981
2777.74	0.01122
2787.39	0.01286
2797.03	0.01501
2806.68	0.01814
2816.32	0.02303
2825.97	0.0301
2835.61	0.03889
2845.26	0.04845
2854.9	0.05571
2864.55	0.0608
2874.19	0.06163
2883.84	0.06181
2893.48	0.06346
2903.12	0.06534
2912.77	0.06728
2922.41	0.06763
2932.06	0.0602
2941.7	0.04966
2951.35	0.03909
2960.99	0.03121
2970.64	0.02941
2980.28	0.03687
2989.93	0.05318
2999.57	0.07243
3009.22	0.08388
3018.86	0.08081
3028.51	0.06644
3038.15	0.04469
3047.8	0.03065
3057.44	0.0297
3067.09	0.04041
3076.73	0.05012
3086.38	0.06302
3096.02	0.04651
3105.67	0.0294
3115.31	0.015
3124.95	0.00718
3134.6	0.00339
3144.24	0.00214
3153.89	0.00164
3163.53	0.0011437
3173.18	0.00128
3182.82	0.00127
3192.47	0.0011271
3202.11	0.0010166
3211.76	0.00149
3221.4	0.00122
3231.05	0.0011956
3240.69	0.00143
3250.34	0.0011299
3259.98	0.0010475
3269.63	0.0009642
3279.27	0.0011122
3288.92	0.0010889
3298.56	0.0010123
3308.21	0.0012067
3317.85	0.00182
3327.49	0.00221
3337.14	0.00251
3346.78	0.0031
3356.43	0.00294
3366.07	0.00195
3375.72	0.00162
3385.36	0.00133
3395.01	0.0012067
3404.65	0.0009351
3414.3	0.00136
3423.94	0.0011598
3433.59	0.00146
3443.23	0.0011603
3452.88	0.0006728
3462.52	0.0008248
3472.17	0.0008247
3481.81	0.0008311
3491.46	0.0008837
3501.1	0.0008059
3510.75	0.000713
3520.39	0.0006695
3530.04	0.000984
3539.68	0.0009408
3549.32	0.0004088
3558.97	0.0004462
3568.61	0.0003539
3578.26	0.00024542
3587.9	0
3597.55	0.0005557
3607.19	0.0004095
3616.84	0.0004877
3626.48	0.00042
3636.13	0.0006299
3645.77	0.00030949
3655.42	0.000157
3665.06	0.00027847
3674.71	0.0003292
3684.35	0.0007268
3694	0.00024595
3703.64	0.0005164
3713.29	0.0003108
3722.93	0.0001949
3732.58	0.00024627
3742.22	0.00028809
3751.86	0.0004759
3761.51	0.0006209
3771.15	0.0003176
3780.8	0.0003115
3790.44	0.0009172
3800.09	0.0008435
3809.73	0.0006949
3819.38	0.0011351
3829.02	0.0010161
3838.67	0.0015
3848.31	0.0011394
3857.96	0.0009465
3867.6	0.0008728
3877.25	0.0010807
3886.89	0.0009974
3896.54	0.00146
3906.18	0.0009189
3915.83	0.001111
3925.47	0.0008885
3935.12	0.0011561
3944.76	0.0007578
3954.41	0.0009778
3964.05	0.0006971
3973.69	0.0011107
3983.34	0.0010143
3992.98	0.0004535
