Infrared Spectrum: Cyclopropane, 1,1-dichloro-
Formula: C3 H4 Cl2
CAS: 2088-35-9
State: GAS (106 mmHg, N2 ADDED, TOTAL PRESSURE 600 mmHg)
Class: COBLENTZ
Instrument: DOW KBr FOREPRISM-GRATING
Instrument parameters: GRATING CHANGED AT 5.0, 7.5, 15.0 MICRON
Sampling: TRANSMISSION
Path length: 5 CM
Resolution: 2
Origin: DOW CHEMICAL COMPANY
1/CM	TRANSMITTANCE
462	0.8847
471	0.8736
480	0.8338
489	0.6316
498	0.4592
507	0.4821
516	0.5691
525	0.8494
534	0.8735
543	0.8767
552	0.882
561	0.8849
570	0.8933
579	0.8952
588	0.8956
597	0.8958
606	0.895
615	0.8831
624	0.8274
633	0.643
642	0.6866
651	0.6434
660	0.7288
669	0.8787
678	0.8293
687	0.7533
696	0.7097
705	0.5158
714	0.0846
723	0.0337
732	0.0624
741	0.5335
750	0.739
759	0.5953
768	0.3497
777	0.3777
786	0.3901
795	0.6999
804	0.6956
813	0.7804
822	0.7818
831	0.8204
840	0.8465
849	0.8537
858	0.8406
867	0.8086
876	0.7814
885	0.7497
894	0.7648
903	0.8181
912	0.8232
921	0.8051
930	0.7827
939	0.6737
948	0.6518
957	0.6957
966	0.6985
975	0.811
984	0.8736
993	0.866
1002	0.8352
1011	0.7596
1020	0.4695
1029	0.1693
1038	0.1936
1047	0.3138
1056	0.6814
1065	0.7319
1074	0.7463
1083	0.7638
1092	0.8199
1101	0.8584
1110	0.7916
1119	0.4871
1128	0.063
1137	0.045
1146	0.0564
1155	0.6401
1164	0.7339
1173	0.7808
1182	0.7898
1191	0.8473
1200	0.841
1209	0.757
1218	0.6339
1227	0.4635
1236	0.3155
1245	0.3438
1254	0.3714
1263	0.6831
1272	0.7518
1281	0.6905
1290	0.4506
1299	0.5199
1308	0.5087
1317	0.6158
1326	0.8509
1335	0.8695
1344	0.8751
1353	0.8728
1362	0.8698
1371	0.8672
1380	0.8469
1389	0.8397
1398	0.8054
1407	0.63
1416	0.357
1425	0.5343
1434	0.5443
1443	0.5663
1452	0.5423
1461	0.5286
1470	0.5951
1479	0.7556
1488	0.8416
1497	0.8594
1506	0.8566
1515	0.8568
1524	0.8549
1533	0.8511
1542	0.8608
1551	0.8603
1560	0.8657
1569	0.8714
1578	0.875
1587	0.8759
1596	0.8766
1605	0.8766
1614	0.8759
1623	0.8729
1632	0.8752
1641	0.8704
1650	0.8786
1659	0.8806
1668	0.8805
1677	0.8718
1686	0.8681
1695	0.8663
1704	0.8579
1713	0.8474
1722	0.8368
1731	0.8251
1740	0.8116
1749	0.8004
1758	0.809
1767	0.833
1776	0.861
1785	0.8581
1794	0.8512
1803	0.8421
1812	0.8407
1821	0.8408
1830	0.8439
1839	0.8463
1848	0.8527
1857	0.8556
1866	0.8571
1875	0.8517
1884	0.8535
1893	0.8416
1902	0.8311
1911	0.8245
1920	0.8328
1929	0.8429
1938	0.8456
1947	0.8464
1956	0.8446
1965	0.8481
1974	0.8433
1983	0.8497
1992	0.8588
2001	0.873
2010	0.8777
2019	0.8797
2028	0.879
2037	0.8759
2046	0.8694
2055	0.8606
2064	0.8507
2073	0.8402
2082	0.8213
2091	0.7934
2100	0.8196
2109	0.8287
2118	0.8353
2127	0.8415
2136	0.8495
2145	0.8657
2154	0.8684
2163	0.868
2172	0.868
2181	0.868
2190	0.8678
2199	0.865
2208	0.8563
2217	0.8587
2226	0.8665
2235	0.8713
2244	0.8753
2253	0.8766
2262	0.8726
2271	0.8614
2280	0.8585
2289	0.8641
2298	0.8733
2307	0.8758
2316	0.8702
2325	0.8663
2334	0.8709
2343	0.8768
2352	0.8807
2361	0.8825
2370	0.8828
2379	0.8822
2388	0.8817
2397	0.8822
2406	0.8839
2415	0.8857
2424	0.8876
2433	0.8885
2442	0.8856
2451	0.8815
2460	0.8772
2469	0.8728
2478	0.872
2487	0.8737
2496	0.8773
2505	0.88
2514	0.8819
2523	0.8828
2532	0.8823
2541	0.8803
2550	0.878
2559	0.8764
2568	0.8774
2577	0.8793
2586	0.8816
2595	0.8837
2604	0.8843
2613	0.8847
2622	0.8845
2631	0.8834
2640	0.8813
2649	0.8794
2658	0.8792
2667	0.8797
2676	0.881
2685	0.8805
2694	0.8796
2703	0.881
2712	0.8867
2721	0.8897
2730	0.8909
2739	0.8917
2748	0.8927
2757	0.8936
2766	0.8944
2775	0.8952
2784	0.8962
2793	0.8971
2802	0.8978
2811	0.8966
2820	0.8944
2829	0.89
2838	0.8835
2847	0.8769
2856	0.8716
2865	0.8716
2874	0.8727
2883	0.8727
2892	0.8727
2901	0.8725
2910	0.8723
2919	0.8723
2928	0.8716
2937	0.869
2946	0.8644
2955	0.8594
2964	0.8539
2973	0.8467
2982	0.8365
2991	0.8163
3000	0.7827
3009	0.698
3018	0.5845
3027	0.3751
3036	0.5821
3045	0.7185
3054	0.8096
3063	0.8084
3072	0.7972
3081	0.7787
3090	0.7463
3099	0.6761
3108	0.663
3117	0.7711
3126	0.8539
3135	0.8734
3144	0.8796
3153	0.8829
3162	0.8849
3171	0.8851
3180	0.8844
3189	0.8844
3198	0.8858
3207	0.8874
3216	0.889
3225	0.8897
3234	0.8905
3243	0.8909
3252	0.8909
3261	0.8908
3270	0.8908
3279	0.8908
3288	0.8908
3297	0.8907
3306	0.8905
3315	0.8903
3324	0.8908
3333	0.8908
3342	0.8901
3351	0.8888
3360	0.8869
3369	0.8845
3378	0.8801
3387	0.8744
3396	0.8723
3405	0.8791
3414	0.8807
3423	0.8807
3432	0.8806
3441	0.8801
3450	0.8797
3459	0.8788
3468	0.8778
3477	0.8765
3486	0.8759
3495	0.8756
3504	0.8804
3513	0.88
3522	0.8798
3531	0.8797
3540	0.88
3549	0.8803
3558	0.8808
3567	0.8811
3576	0.8814
3585	0.8804
3594	0.8792
3603	0.8778
3612	0.8769
3621	0.8791
3630	0.8837
3639	0.8773
3648	0.8778
3657	0.8783
3666	0.878
3675	0.8749
3684	0.8747
3693	0.8772
3702	0.8797
3711	0.8826
3720	0.888
3729	0.8906
3738	0.882
3747	0.875
3756	0.875
3765	0.8757
3774	0.8762
3783	0.8778
