Infrared Spectrum: 2-Propanol, 1-amino-
Formula: C 3 H 9 N O
CAS: 78-96-6
State: gas
Origin: Sadtler Research Labs Under US-EPA Contract
1/CM	ABSORBANCE
450	0.110515
462	0.0837992
474	0.112485
486	0.110371
498	0.117771
510	0.0962442
522	0.0971091
534	0.0570834
546	0.0251302
558	0.00514135
570	0.00052855
582	0.0102827
594	0.0084568
606	0.0166253
618	0.0274846
630	0.033587
642	0.0292144
654	0.0269561
666	0.01922
678	0.0202771
690	0.0428606
702	0.056651
714	0.0763034
726	0.111092
738	0.166397
750	0.209882
762	0.306895
774	0.334716
786	0.314391
798	0.238905
810	0.181341
822	0.181533
834	0.195708
846	0.181052
858	0.139201
870	0.0804357
882	0.0631857
894	0.0775047
906	0.118011
918	0.151598
930	0.160055
942	0.118395
954	0.0744295
966	0.0501642
978	0.0549692
990	0.0748139
1002	0.0983584
1014	0.133291
1026	0.192921
1038	0.271627
1050	0.339521
1062	0.350669
1074	0.298679
1086	0.239625
1098	0.178602
1110	0.157316
1122	0.140883
1134	0.138192
1146	0.116858
1158	0.0910067
1170	0.0649156
1182	0.0572756
1194	0.0568912
1206	0.0574198
1218	0.0649156
1230	0.0874991
1242	0.117626
1254	0.150493
1266	0.173316
1278	0.172211
1290	0.152655
1302	0.115272
1314	0.0908145
1326	0.0933612
1338	0.106094
1350	0.117915
1362	0.145688
1374	0.196188
1386	0.231217
1398	0.217378
1410	0.14564
1422	0.101482
1434	0.0740931
1446	0.0775047
1458	0.094178
1470	0.0772644
1482	0.0477137
1494	0.023064
1506	0.0127333
1518	0.0077841
1530	0.00687115
1542	0.0066309
1554	0.00773605
1566	0.0127333
1578	0.0202771
1590	0.0331065
1602	0.0623689
1614	0.104172
1626	0.119212
1638	0.0969168
1650	0.0522784
1662	0.0218628
1674	0.00961
1686	0.00523745
1698	0.0026908
1710	0.00168175
1722	0.00187395
1734	0.0020181
1746	0.00225835
1758	0.00148955
1770	0.0012493
1782	0.00110515
1794	0.0014415
1806	0.0023064
1818	0.00273885
1830	0.0034596
1842	0.0034596
1854	0.0033635
1866	0.0024025
1878	0.00158565
1890	0.00033635
1902	0.0002883
1914	0.0002883
1926	0.00014415
1938	0.0003844
1950	0.0001922
1962	0.000961
1974	0.00129735
1986	0.0016337
1998	0.00158565
2010	0.0014415
2022	0.0008649
2034	0.0012493
2046	0.00091295
2058	0.0010571
2070	0.0011532
2082	0.0005766
2094	0.00120125
2106	0.00139345
2118	0.00120125
2130	0.0011532
2142	0.000961
2154	0.00110515
2166	0.0008649
2178	0.00081685
2190	0.00110515
2202	0.0011532
2214	0.00110515
2226	0.00072075
2238	0.0008649
2250	0.00024025
2262	0.0004805
2274	0.00072075
2286	0.00129735
2298	0.0014415
2310	0.00158565
2322	0.0004805
2334	9.61e-05
2346	4.805e-05
2358	0.00014415
2370	0.00024025
2382	0.00245055
2394	0.00177785
2406	0.0024025
2418	0.00254665
2430	0.00235445
2442	0.00187395
2454	0.0023064
2466	0.00158565
2478	0.0021142
2490	0.0015376
2502	0.0022103
2514	0.00283495
2526	0.00312325
2538	0.00389205
2550	0.00446865
2562	0.00446865
2574	0.004805
2586	0.00591015
2598	0.00802435
2610	0.0101385
2622	0.0137903
2634	0.017298
2646	0.0200849
2658	0.023016
2670	0.0219108
2682	0.021094
2694	0.0198927
2706	0.0208537
2718	0.0231601
2730	0.0273405
2742	0.0322896
2754	0.0359894
2766	0.0407464
2778	0.0467046
2790	0.0558822
2802	0.0690479
2814	0.0837031
2826	0.111572
2838	0.160247
2850	0.244719
2862	0.321455
2874	0.363306
2886	0.35408
2898	0.350188
2910	0.383631
2922	0.447826
2934	0.462625
2946	0.426059
2958	0.389878
2970	0.432979
2982	0.419525
2994	0.289069
3006	0.127429
3018	0.0312325
3030	0.0126852
3042	0.0089373
3054	0.0077841
3066	0.00735165
3078	0.0078802
3090	0.00715945
3102	0.00600625
3114	0.004805
3126	0.00350765
3138	0.0035557
3150	0.00369985
3162	0.0043245
3174	0.0063426
3186	0.0065348
3198	0.00619845
3210	0.0046128
3222	0.0031713
3234	0.0023064
3246	0.000961
3258	9.61e-05
3270	0.00120125
3282	0.00110515
3294	0.0005766
3306	0.0008649
3318	0.0012493
3330	0.00254665
3342	0.00571795
3354	0.00687115
3366	0.00725555
3378	0.0078802
3390	0.011532
3402	0.0177785
3414	0.0242653
3426	0.0271963
3438	0.0236887
3450	0.0164331
3462	0.0111957
3474	0.00735165
3486	0.00754385
3498	0.00860095
3510	0.0103788
3522	0.0241692
3534	0.0670778
3546	0.112341
3558	0.129399
3570	0.106863
3582	0.0693361
3594	0.0498278
3606	0.0356531
3618	0.0316169
3630	0.0351246
3642	0.041323
3654	0.0527589
3666	0.0492993
3678	0.0367102
3690	0.0180188
3702	0.00985025
3714	0.0066309
3726	0.0040362
3738	0.0024986
3750	0.00283495
3762	0.0002883
3774	0.0002883
3786	0.0001922
3798	4.805e-05
3810	0.00024025
3822	0.00091295
3834	0.00043245
3846	0.00033635
3858	0.00033635
3870	0.00043245
3882	0
3894	0
3906	0.0011532
3918	0.0020181
3930	0.00062465
3942	0.0006727
3954	0.00206615
3966	4.805e-05
