Infrared Spectrum: 2-PROPANOL, 1-AMINO-
Formula: C3 H9 N O
CAS: 78-96-6
State: LIQUID (NEAT)
Class: COBLENTZ III
Instrument: BAIRD (GRATING)
Instrument parameters: NaCl PRISM
Sampling: TRANSMISSION
Path length: CAPILLARY
Resolution: 2
Origin: WYANDOTTE CHEMICALS CORP.
1/CM	TRANSMITTANCE
4000	1.0001
3991	1.0001
3982	1.0002
3973	1.0003
3964	1.0003
3955	1.0004
3946	1.0005
3937	1.0005
3928	1.0004
3919	1.0004
3910	1.0004
3901	1.0003
3892	1.0003
3883	1.0003
3874	1.0002
3865	0.9999
3856	0.9996
3847	0.9993
3838	0.999
3829	0.9987
3820	0.9984
3811	0.9983
3802	0.998
3793	0.9978
3784	0.9975
3775	0.9971
3766	0.9965
3757	0.9959
3748	0.9951
3739	0.9943
3730	0.9934
3721	0.9925
3712	0.9913
3703	0.99
3694	0.9887
3685	0.9867
3676	0.9845
3667	0.9821
3658	0.979
3649	0.9757
3640	0.971
3631	0.9658
3622	0.9591
3613	0.9504
3604	0.9405
3595	0.9249
3586	0.9044
3577	0.8823
3568	0.864
3559	0.8408
3550	0.8186
3541	0.7914
3532	0.7508
3523	0.7388
3514	0.7044
3505	0.6619
3496	0.6355
3487	0.6088
3478	0.5821
3469	0.5551
3460	0.5281
3451	0.5008
3442	0.4735
3433	0.446
3424	0.4184
3415	0.3906
3406	0.3627
3397	0.3346
3388	0.3064
3379	0.278
3370	0.2495
3361	0.2208
3352	0.1958
3343	0.1765
3334	0.1484
3325	0.1283
3316	0.1152
3307	0.1131
3298	0.1118
3289	0.1101
3280	0.106
3271	0.1049
3262	0.1058
3253	0.1087
3244	0.1128
3235	0.117
3226	0.1202
3217	0.1213
3208	0.1217
3199	0.122
3190	0.1221
3181	0.1216
3172	0.1208
3163	0.1204
3154	0.1207
3145	0.1217
3136	0.1256
3127	0.1308
3118	0.1366
3109	0.1463
3100	0.1588
3091	0.1733
3082	0.1883
3073	0.2025
3064	0.2168
3055	0.2312
3046	0.2456
3037	0.2602
3028	0.2749
3019	0.2895
3010	0.2949
3001	0.2571
2992	0.2084
2983	0.1595
2974	0.1103
2965	0.0864
2956	0.0893
2947	0.0945
2938	0.0939
2929	0.0883
2920	0.0851
2911	0.0871
2902	0.0949
2893	0.1042
2884	0.1094
2875	0.1107
2866	0.106
2857	0.1022
2848	0.1018
2839	0.1071
2830	0.1211
2821	0.1474
2812	0.1824
2803	0.2176
2794	0.2531
2785	0.2875
2776	0.2977
2767	0.3017
2758	0.3041
2749	0.3061
2740	0.3113
2731	0.327
2722	0.3518
2713	0.3734
2704	0.3898
2695	0.4205
2686	0.4394
2677	0.4558
2668	0.4695
2659	0.4823
2650	0.4951
2641	0.5081
2632	0.521
2623	0.5343
2614	0.5475
2605	0.5596
2596	0.5706
2587	0.5821
2578	0.5941
2569	0.6048
2560	0.6151
2551	0.6257
2542	0.6365
2533	0.6471
2524	0.6578
2515	0.6686
2506	0.6801
2497	0.6939
2488	0.7081
2479	0.7218
2470	0.7338
2461	0.7451
2452	0.7551
2443	0.7651
2434	0.7747
2425	0.7835
2416	0.7924
2407	0.8001
2398	0.8078
2389	0.8153
2380	0.8225
2371	0.8292
2362	0.8354
2353	0.8415
2344	0.8459
2335	0.8494
2326	0.8546
2317	0.8634
2308	0.8728
2299	0.8825
2290	0.8916
2281	0.9013
2272	0.9101
2263	0.9165
2254	0.9196
2245	0.9193
2236	0.9203
2227	0.922
2218	0.9239
2209	0.9258
2200	0.9275
2191	0.9294
2182	0.9307
2173	0.9318
2164	0.9335
2155	0.9353
2146	0.937
2137	0.9387
2128	0.9402
2119	0.9418
2110	0.9427
2101	0.9428
2092	0.943
2083	0.9428
2074	0.9427
2065	0.9424
2056	0.9421
2047	0.9414
2038	0.9407
2029	0.94
2020	0.9394
2011	0.9387
2002	0.9367
1993	0.9348
1984	0.9328
1975	0.9306
1966	0.9284
1957	0.9267
1948	0.9258
1939	0.9248
1930	0.9238
1921	0.9239
1912	0.9241
1903	0.9242
1894	0.9244
1885	0.9243
1876	0.9243
1867	0.9242
1858	0.9246
1849	0.9251
1840	0.9255
1831	0.9259
1822	0.9262
1813	0.9264
1804	0.9266
1795	0.9263
1786	0.9255
1777	0.9224
1768	0.9174
1759	0.9103
1750	0.9018
1741	0.8911
1732	0.8764
1723	0.8621
1714	0.8525
1705	0.8338
1696	0.805
1687	0.7874
1678	0.7744
1669	0.7608
1660	0.7431
1651	0.7051
1642	0.6333
1633	0.5374
1624	0.4503
1615	0.372
1606	0.3874
1597	0.4693
1588	0.5524
1579	0.6364
1570	0.7067
1561	0.7286
1552	0.7418
1543	0.7548
1534	0.7524
1525	0.738
1516	0.7022
1507	0.6558
1498	0.5969
1489	0.5412
1480	0.465
1471	0.3804
1462	0.3834
1453	0.4187
1444	0.449
1435	0.4798
1426	0.5109
1417	0.5425
1408	0.5644
1399	0.542
1390	0.4907
1381	0.3616
1372	0.3499
1363	0.5025
1354	0.4983
1345	0.4402
1336	0.4316
1327	0.4476
1318	0.4692
1309	0.4746
1300	0.4832
1291	0.5301
1282	0.5777
1273	0.626
1264	0.675
1255	0.7142
1246	0.7351
1237	0.7457
1228	0.7332
1219	0.7321
1210	0.6754
1201	0.6094
1192	0.562
1183	0.5996
1174	0.6725
1165	0.6794
1156	0.5867
1147	0.3595
1138	0.2271
1129	0.3234
1120	0.3536
1111	0.3534
1102	0.4096
1093	0.4773
1084	0.4362
1075	0.2777
1066	0.179
1057	0.1857
1048	0.2468
1039	0.3185
1030	0.3894
1021	0.4285
1012	0.3825
1003	0.32
994	0.2661
985	0.2221
976	0.1916
967	0.1817
958	0.1889
949	0.2053
940	0.2274
931	0.2402
922	0.1876
913	0.1789
904	0.2331
895	0.261
886	0.275
877	0.3212
868	0.3559
859	0.3857
850	0.4137
841	0.4408
832	0.4424
823	0.4059
814	0.3993
805	0.4633
796	0.4894
787	0.521
778	0.5552
769	0.5835
760	0.6016
751	0.6133
742	0.6226
733	0.636
724	0.6461
715	0.6556
706	0.6626
697	0.6701
688	0.6684
679	0.6741
670	0.6715
661	0.6589
652	0.6605
643	0.6558
634	0.6418
