Infrared Spectrum: METHANE, TRIBROMOFLUORO-
Formula: C Br3 F
CAS: 353-54-8
State: SOLUTION (10% IN CCl4 FOR 3800-1330, AND 10% IN CS2 FOR 1330-460 CM^-^1)
Class: COBLENTZ III
Instrument: DOW KBr FOREPRISM-GRATING
Instrument parameters: BLAZED AT 3.5, 12.0, 20.0 MICRON, CHANGED AT 5.0, 7.5, 14.9 MICRON
Sampling: TRANSMISSION
Path length: 0.011, 0.011 CM
Resolution: 4
Origin: DOW CHEMICAL COMPANY
1/CM	TRANSMITTANCE
455.682	0.855
464.382	0.866
473.083	0.875
481.783	0.883
490.484	0.889
499.184	0.898
507.884	0.895
516.585	0.879
525.285	0.881
533.985	0.908
542.686	0.912
551.386	0.92
560.087	0.927
568.787	0.928
577.487	0.927
586.188	0.927
594.888	0.928
603.589	0.927
612.289	0.918
620.989	0.928
629.69	0.925
638.39	0.914
647.09	0.89
655.791	0.883
664.491	0.901
673.192	0.906
681.892	0.885
690.592	0.733
699.293	0.312
707.993	0.695
716.694	0.698
725.394	0.424
734.094	0
742.795	0.012
751.495	0.501
760.196	0.805
768.896	0.881
777.596	0.918
786.297	0.929
794.997	0.936
803.697	0.94
812.398	0.952
821.098	0.95
829.799	0.941
838.499	0.909
847.199	0.832
855.9	0.782
864.6	0.813
873.301	0.85
882.001	0.883
890.701	0.924
899.402	0.944
908.102	0.95
916.802	0.958
925.503	0.96
934.203	0.962
942.904	0.959
951.604	0.933
960.304	0.959
969.005	0.964
977.705	0.967
986.406	0.966
995.106	0.96
1003.81	0.951
1012.51	0.939
1021.21	0.868
1029.91	0.735
1038.61	0.435
1047.31	0.108
1056.01	0.032
1064.71	0.482
1073.41	0.798
1082.11	0.906
1090.81	0.937
1099.51	0.951
1108.21	0.958
1116.91	0.96
1125.61	0.959
1134.31	0.944
1143.01	0.948
1151.71	0.964
1160.41	0.967
1169.11	0.966
1177.81	0.952
1186.51	0.971
1195.21	0.97
1203.92	0.966
1212.62	0.974
1221.32	0.974
1230.02	0.975
1238.72	0.968
1247.42	0.96
1256.12	0.954
1264.82	0.955
1273.52	0.955
1282.22	0.959
1290.92	0.962
1299.62	0.966
1308.32	0.967
1317.02	0.97
1325.72	0.971
1334.42	0.974
1343.12	0.971
1351.82	0.945
1360.52	0.936
1369.22	0.952
1377.92	0.962
1386.62	0.974
1395.32	0.97
1404.02	0.972
1412.72	0.966
1421.42	0.966
1430.13	0.966
1438.83	0.954
1447.53	0.952
1456.23	0.95
1464.93	0.94
1473.63	0.924
1482.33	0.91
1491.03	0.89
1499.73	0.856
1508.43	0.798
1517.13	0.755
1525.83	0.702
1534.53	0.632
1543.23	0.54
1551.93	0.501
1560.63	0.562
1569.33	0.645
1578.03	0.681
1586.73	0.709
1595.43	0.781
1604.13	0.866
1612.83	0.914
1621.53	0.941
1630.23	0.952
1638.93	0.958
1647.63	0.959
1656.34	0.963
1665.04	0.964
1673.74	0.963
1682.44	0.963
1691.14	0.963
1699.84	0.962
1708.54	0.964
1717.24	0.962
1725.94	0.963
1734.64	0.962
1743.34	0.963
1752.04	0.966
1760.74	0.966
1769.44	0.967
1778.14	0.967
1786.84	0.967
1795.54	0.964
1804.24	0.963
1812.94	0.963
1821.64	0.964
1830.34	0.962
1839.04	0.96
1847.74	0.96
1856.44	0.96
1865.14	0.96
1873.84	0.962
1882.55	0.964
1891.25	0.963
1899.95	0.964
1908.65	0.964
1917.35	0.964
1926.05	0.967
1934.75	0.966
1943.45	0.964
1952.15	0.963
1960.85	0.963
1969.55	0.962
1978.25	0.963
1986.95	0.964
1995.65	0.97
2004.35	0.9785
2013.05	0.981
2021.75	0.982
2030.45	0.983
2039.15	0.985
2047.85	0.985
2056.55	0.983
2065.25	0.9825
2073.95	0.979
2082.65	0.977
2091.35	0.9644
2100.05	0.958
2108.76	0.9555
2117.46	0.9667
2126.16	0.9812
2134.86	0.9865
2143.56	0.989
2152.26	0.991
2160.96	0.994
2169.66	0.993
2178.36	0.993
2187.06	0.991
2195.76	0.993
2204.46	0.9967
2213.16	0.9904
2221.86	0.991
2230.56	0.991
2239.26	0.9896
2247.96	0.9894
2256.66	0.9854
2265.36	0.983
2274.06	0.9782
2282.76	0.975
2291.46	0.974
2300.16	0.9688
2308.86	0.9802
2317.56	0.981
2326.26	0.9918
2334.97	0.997
2343.67	0.995
2352.37	0.9958
2361.07	0.995
2369.77	0.994
2378.47	0.9934
2387.17	0.9894
2395.87	0.9878
2404.57	0.989
2413.27	0.9906
2421.97	0.989
2430.67	0.9894
2439.37	0.989
2448.07	0.99
2456.77	0.9894
2465.47	0.989
2474.17	0.9903
2482.87	0.9877
2491.57	0.9877
2500.27	0.986
2508.97	0.9867
2517.67	0.987
2526.37	0.9837
2535.07	0.983
2543.77	0.9857
2552.47	0.985
2561.18	0.986
2569.88	0.985
2578.58	0.985
2587.28	0.983
2595.98	0.983
2604.68	0.982
2613.38	0.981
2622.08	0.981
2630.78	0.981
2639.48	0.979
2648.18	0.978
2656.88	0.981
2665.58	0.979
2674.28	0.979
2682.98	0.978
2691.68	0.978
2700.38	0.977
2709.08	0.975
2717.78	0.975
2726.48	0.974
2735.18	0.9755
2743.88	0.9762
2752.58	0.9743
2761.28	0.972
2769.98	0.971
2778.68	0.975
2787.39	0.9713
2796.09	0.9725
2804.79	0.968
2813.49	0.9702
2822.19	0.968
2830.89	0.967
2839.59	0.9662
2848.29	0.9592
2856.99	0.962
2865.69	0.9605
2874.39	0.962
2883.09	0.9632
2891.79	0.9638
2900.49	0.962
2909.19	0.9564
2917.89	0.954
2926.59	0.954
2935.29	0.9548
2943.99	0.9584
2952.69	0.959
2961.39	0.958
2970.09	0.958
2978.79	0.962
2987.49	0.96
2996.19	0.9616
3004.9	0.963
3013.6	0.962
3022.3	0.962
3031	0.9638
3039.7	0.9622
3048.4	0.962
3057.1	0.959
3065.8	0.9617
3074.5	0.959
3083.2	0.96
3091.9	0.96
3100.6	0.959
3109.3	0.958
3118	0.956
3126.7	0.956
3135.4	0.956
3144.1	0.958
3152.8	0.959
3161.5	0.959
3170.2	0.96
3178.9	0.96
3187.6	0.962
3196.3	0.958
3205	0.959
3213.7	0.9581
3222.4	0.9589
3231.11	0.962
3239.81	0.959
3248.51	0.962
3257.21	0.96
3265.91	0.96
3274.61	0.962
3283.31	0.9555
3292.01	0.9618
3300.71	0.96
3309.41	0.962
3318.11	0.96
3326.81	0.959
3335.51	0.958
3344.21	0.96
3352.91	0.9589
3361.61	0.96
3370.31	0.9589
3379.01	0.958
3387.71	0.963
3396.41	0.959
3405.11	0.9599
3413.81	0.96
3422.51	0.958
3431.21	0.956
3439.91	0.9579
3448.61	0.956
3457.32	0.958
3466.02	0.958
3474.72	0.956
3483.42	0.956
3492.12	0.956
3500.82	0.9579
3509.52	0.958
3518.22	0.956
3526.92	0.956
3535.62	0.958
3544.32	0.958
3553.02	0.956
3561.72	0.958
3570.42	0.955
3579.12	0.954
3587.82	0.958
3596.52	0.958
3605.22	0.96
3613.92	0.96
3622.62	0.959
3631.32	0.956
3640.02	0.956
3648.72	0.956
3657.42	0.958
3666.12	0.958
3674.82	0.956
3683.53	0.958
3692.23	0.956
3700.93	0.956
3709.63	0.959
3718.33	0.956
3727.03	0.958
3735.73	0.9579
3744.43	0.956
3753.13	0.96
3761.83	0.958
3770.53	0.956
3779.23	0.955
3787.93	0.958
