Infrared Spectrum: FLUORO TRIBROMO METHANE
Formula: C Br3 F
CAS: 353-54-8
State: SOLUTION (10% CCl4 FOR 5000-1330, 10% CS2 FOR 1330-625 CM^-^1)
Boiling point: 107 C
Class: COBLENTZ
Instrument: Not specified, most likely a prism, grating, or hybrid spectrometer.
Sampling: TRANSMISSION
Path length: 0.0113 CM, 0.0109 CM
Resolution: 4
Origin: DOW CHEMICAL COMPANY
MICROMETERS	TRANSMITTANCE
2.048	0.842
2.08912	0.843
2.13023	0.845
2.17135	0.843
2.21246	0.847
2.25358	0.845
2.2947	0.845
2.33581	0.85
2.37693	0.854
2.41805	0.857
2.45916	0.857
2.50028	0.862
2.54139	0.862
2.58251	0.862
2.62363	0.862
2.66474	0.869
2.70586	0.862
2.74698	0.859
2.78809	0.852
2.82921	0.845
2.87032	0.84
2.91144	0.835
2.95256	0.831
2.99367	0.835
3.03479	0.831
3.07591	0.831
3.11702	0.835
3.15814	0.837
3.19925	0.84
3.24037	0.84
3.28149	0.838
3.3226	0.842
3.36372	0.842
3.40484	0.842
3.44595	0.843
3.48707	0.847
3.52818	0.849
3.5693	0.85
3.61042	0.849
3.65153	0.85
3.69265	0.857
3.73377	0.859
3.77488	0.857
3.816	0.861
3.85711	0.861
3.89823	0.861
3.93935	0.861
3.98046	0.862
4.02158	0.861
4.06269	0.861
4.10381	0.857
4.14493	0.859
4.18604	0.864
4.22716	0.857
4.26828	0.849
4.30939	0.843
4.35051	0.838
4.39162	0.85
4.43274	0.861
4.47386	0.861
4.51497	0.867
4.55609	0.869
4.59721	0.871
4.63832	0.871
4.67944	0.873
4.72055	0.867
4.76167	0.854
4.80279	0.85
4.8439	0.864
4.88502	0.871
4.92614	0.873
4.96725	0.873
5.00837	0.871
5.04948	0.871
5.0906	0.878
5.13172	0.879
5.17283	0.879
5.21395	0.879
5.25507	0.876
5.29618	0.874
5.3373	0.874
5.37841	0.871
5.41953	0.869
5.46065	0.878
5.50176	0.873
5.54288	0.873
5.584	0.873
5.62511	0.876
5.66623	0.878
5.70734	0.879
5.74846	0.878
5.78958	0.874
5.83069	0.874
5.87181	0.878
5.91293	0.878
5.95404	0.876
5.99516	0.871
6.03627	0.866
6.07739	0.854
6.11851	0.85
6.15962	0.847
6.20074	0.811
6.24185	0.742
6.28297	0.66
6.32409	0.627
6.3652	0.595
6.40632	0.533
6.44744	0.483
6.48855	0.481
6.52967	0.59
6.57078	0.631
6.6119	0.684
6.65302	0.751
6.69413	0.799
6.73525	0.831
6.77637	0.838
6.81748	0.857
6.8586	0.866
6.89971	0.871
6.94083	0.873
6.98195	0.873
7.02306	0.874
7.06418	0.878
7.1053	0.879
7.14641	0.879
7.18753	0.879
7.22864	0.886
7.26976	0.879
7.31088	0.879
7.35199	0.879
7.39311	0.879
7.43423	0.886
7.47534	0.883
7.51646	0.881
7.55757	0.879
7.59869	0.876
7.63981	0.879
7.68092	0.879
7.72204	0.879
7.76316	0.879
7.80427	0.879
7.84539	0.879
7.8865	0.881
7.92762	0.879
7.96874	0.876
8.00985	0.881
8.05097	0.878
8.09208	0.878
8.1332	0.878
8.17432	0.879
8.21543	0.876
8.25655	0.873
8.29767	0.871
8.33878	0.866
8.3799	0.842
8.42101	0.83
8.46213	0.862
8.50325	0.869
8.54436	0.869
8.58548	0.866
8.6266	0.862
8.66771	0.861
8.70883	0.855
8.74994	0.843
8.79106	0.838
8.83218	0.843
8.87329	0.855
8.91441	0.857
8.95553	0.859
8.99664	0.859
9.03776	0.857
9.07887	0.85
9.11999	0.845
9.16111	0.845
9.20222	0.843
9.24334	0.826
9.28446	0.802
9.32557	0.756
9.36669	0.65
9.4078	0.49
9.44892	0.188
9.49004	0.039
9.53115	0.065
9.57227	0.202
9.61339	0.37
9.6545	0.562
9.69562	0.667
9.73673	0.742
9.77785	0.787
9.81897	0.819
9.86008	0.831
9.9012	0.843
9.94232	0.859
9.98343	0.861
10.0245	0.862
10.0657	0.867
10.1068	0.874
10.1479	0.876
10.189	0.876
10.2301	0.874
10.2712	0.873
10.3124	0.874
10.3535	0.876
10.3946	0.873
10.4357	0.857
10.4768	0.849
10.5179	0.849
10.5591	0.857
10.6002	0.867
10.6413	0.869
10.6824	0.867
10.7235	0.869
10.7646	0.867
10.8058	0.867
10.8469	0.864
10.888	0.862
10.9291	0.861
10.9702	0.857
11.0113	0.855
11.0525	0.854
11.0936	0.849
11.1347	0.843
11.1758	0.838
11.2169	0.83
11.258	0.818
11.2992	0.806
11.3403	0.79
11.3814	0.777
11.4225	0.765
11.4636	0.753
11.5047	0.742
11.5458	0.732
11.587	0.72
11.6281	0.71
11.6692	0.703
11.7103	0.699
11.7514	0.703
11.7925	0.728
11.8337	0.758
11.8748	0.787
11.9159	0.807
11.957	0.819
11.9981	0.828
12.0392	0.833
12.0804	0.837
12.1215	0.837
12.1626	0.837
12.2037	0.838
12.2448	0.837
12.2859	0.831
12.3271	0.828
12.3682	0.826
12.4093	0.825
12.4504	0.826
12.4915	0.826
12.5326	0.821
12.5738	0.819
12.6149	0.814
12.656	0.809
12.6971	0.806
12.7382	0.801
12.7793	0.801
12.8205	0.801
12.8616	0.797
12.9027	0.792
12.9438	0.78
12.9849	0.773
13.026	0.758
13.0671	0.746
13.1083	0.727
13.1494	0.699
13.1905	0.663
13.2316	0.615
13.2727	0.548
13.3138	0.466
13.355	0.348
13.3961	0.21
13.4372	0.096
13.4783	0.018
13.5194	0
13.5605	0
13.6017	0
13.6428	0
13.6839	0.03
13.725	0.132
13.7661	0.262
13.8072	0.391
13.8484	0.473
13.8895	0.523
13.9306	0.542
13.9717	0.554
14.0128	0.564
14.0539	0.567
14.0951	0.557
14.1362	0.504
14.1773	0.444
14.2184	0.349
14.2595	0.289
14.3006	0.265
14.3418	0.279
14.3829	0.334
14.424	0.396
14.4651	0.451
14.5062	0.495
14.5473	0.536
14.5884	0.557
14.6296	0.567
14.6707	0.567
14.7118	0.571
14.7529	0.569
14.794	0.562
14.8351	0.559
14.8763	0.55
14.9174	0.542
14.9585	0.538
14.9996	0.528
15.0407	0.518
15.0818	0.5
15.123	0.488
15.1641	0.48
15.2052	0.473
15.2463	0.463
15.2874	0.452
15.3285	0.449
15.3697	0.445
15.4108	0.442
15.4519	0.437
15.493	0.432
15.5341	0.423
15.5752	0.418
15.6164	0.409
15.6575	0.403
15.6986	0.401
15.7397	0.399
15.7808	0.399
15.8219	0.397
15.8631	0.397
15.9042	0.397
15.9453	0.397
15.9864	0.397
