Infrared Spectrum: Acetic acid
Formula: C2 H4 O2
CAS: 64-19-7
State: GAS (15 mmHg, N2 ADDED, TOTAL PRESSURE 600 mmHg)
Class: COBLENTZ
Instrument: DOW KBr FOREPRISM-GRATING
Instrument parameters: GRATING CHANGED AT 5.0, 7.5, 15.0 MICRON
Sampling: TRANSMISSION
Path length: 5 CM
Resolution: 2
Origin: DOW CHEMICAL COMPANY
1/CM	TRANSMITTANCE
460	0.7482
469	0.6874
478	0.5447
487	0.5264
496	0.7878
505	0.8314
514	0.8244
523	0.8164
532	0.8234
541	0.6786
550	0.8193
559	0.808
568	0.7928
577	0.794
586	0.7728
595	0.7833
604	0.7799
613	0.7783
622	0.5743
631	0.5018
640	0.6558
649	0.6492
658	0.7267
667	0.7921
676	0.7978
685	0.8167
694	0.8457
703	0.8663
712	0.8689
721	0.8716
730	0.872
739	0.8636
748	0.8594
757	0.8547
766	0.8494
775	0.8438
784	0.8384
793	0.8338
802	0.8341
811	0.8327
820	0.8277
829	0.819
838	0.8106
847	0.8103
856	0.8041
865	0.7968
874	0.7876
883	0.7592
892	0.7151
901	0.699
910	0.6842
919	0.6442
928	0.5928
937	0.5443
946	0.5207
955	0.5391
964	0.5965
973	0.6714
982	0.7121
991	0.7275
1000	0.7125
1009	0.6882
1018	0.6865
1027	0.7348
1036	0.7894
1045	0.7997
1054	0.7844
1063	0.7737
1072	0.7758
1081	0.784
1090	0.8011
1099	0.8209
1108	0.8402
1117	0.8516
1126	0.8454
1135	0.8303
1144	0.8108
1153	0.7771
1162	0.7225
1171	0.6495
1180	0.5943
1189	0.6167
1198	0.635
1207	0.6801
1216	0.7945
1225	0.8333
1234	0.8317
1243	0.8141
1252	0.7728
1261	0.69
1270	0.5618
1279	0.287
1288	0.1033
1297	0.0679
1306	0.1282
1315	0.4909
1324	0.7365
1333	0.8008
1342	0.7948
1351	0.7675
1360	0.6742
1369	0.5812
1378	0.5848
1387	0.5733
1396	0.5841
1405	0.5269
1414	0.3888
1423	0.1857
1432	0.1735
1441	0.355
1450	0.5892
1459	0.683
1468	0.7419
1477	0.7541
1486	0.7514
1495	0.7447
1504	0.731
1513	0.7046
1522	0.7091
1531	0.7465
1540	0.7845
1549	0.8019
1558	0.8078
1567	0.8078
1576	0.8083
1585	0.8086
1594	0.8095
1603	0.8111
1612	0.8122
1621	0.8121
1630	0.8098
1639	0.8017
1648	0.793
1657	0.7842
1666	0.7748
1675	0.765
1684	0.7538
1693	0.7318
1702	0.6689
1711	0.5277
1720	0.1437
1729	0.0034
1738	0.0071
1747	0.0632
1756	0.3212
1765	0.3964
1774	0.324
1783	0.2567
1792	0.4169
1801	0.4048
1810	0.5536
1819	0.6934
1828	0.7497
1837	0.7749
1846	0.7867
1855	0.7898
1864	0.7907
1873	0.7925
1882	0.7942
1891	0.7917
1900	0.7912
1909	0.7932
1918	0.801
1927	0.8071
1936	0.8088
1945	0.8094
1954	0.8136
1963	0.8198
1972	0.8253
1981	0.8311
1990	0.8368
1999	0.8423
2008	0.844
2017	0.8416
2026	0.8374
2035	0.8327
2044	0.8309
2053	0.8311
2062	0.833
2071	0.8359
2080	0.8388
2089	0.8416
2098	0.8443
2107	0.8467
2116	0.8465
2125	0.846
2134	0.8421
2143	0.834
2152	0.8221
2161	0.8115
2170	0.8051
2179	0.813
2188	0.8275
2197	0.841
2206	0.8483
2215	0.8473
2224	0.8449
2233	0.8405
2242	0.8345
2251	0.8244
2260	0.8183
2269	0.826
2278	0.83
2287	0.8228
2296	0.815
2305	0.8101
2314	0.8126
2323	0.8202
2332	0.831
2341	0.8353
2350	0.8318
2359	0.8271
2368	0.8237
2377	0.8211
2386	0.8197
2395	0.8183
2404	0.8168
2413	0.8149
2422	0.8126
2431	0.8093
2440	0.8058
2449	0.8025
2458	0.7985
2467	0.7938
2476	0.7891
2485	0.7845
2494	0.779
2503	0.7733
2512	0.7622
2521	0.7428
2530	0.7199
2539	0.6945
2548	0.6621
2557	0.6224
2566	0.5962
2575	0.6142
2584	0.6989
2593	0.7354
2602	0.7267
2611	0.6772
2620	0.6202
2629	0.5631
2638	0.5114
2647	0.511
2656	0.5884
2665	0.5865
2674	0.578
2683	0.5523
2692	0.5071
2701	0.4888
2710	0.5201
2719	0.5622
2728	0.5888
2737	0.5973
2746	0.5971
2755	0.5827
2764	0.5406
2773	0.506
2782	0.5075
2791	0.5187
2800	0.5277
2809	0.5275
2818	0.5191
2827	0.5021
2836	0.4897
2845	0.4882
2854	0.4876
2863	0.4871
2872	0.4868
2881	0.485
2890	0.4617
2899	0.4175
2908	0.3652
2917	0.3139
2926	0.2779
2935	0.2556
2944	0.2372
2953	0.2248
2962	0.2296
2971	0.2851
2980	0.3416
2989	0.3012
2998	0.238
3007	0.2141
3016	0.2076
3025	0.2084
3034	0.2191
3043	0.2277
3052	0.2249
3061	0.2205
3070	0.2175
3079	0.2223
3088	0.2374
3097	0.2526
3106	0.2598
3115	0.2563
3124	0.2512
3133	0.2519
3142	0.2584
3151	0.2969
3160	0.3209
3169	0.3393
3178	0.3466
3187	0.3525
3196	0.3602
3205	0.3749
3214	0.3903
3223	0.4049
3232	0.423
3241	0.4429
3250	0.4643
3259	0.4901
3268	0.5166
3277	0.5435
3286	0.5696
3295	0.591
3304	0.6103
3313	0.6357
3322	0.6611
3331	0.6856
3340	0.7081
3349	0.729
3358	0.7497
3367	0.7664
3376	0.7733
3385	0.7762
3394	0.7812
3403	0.7971
3412	0.8203
3421	0.8339
3430	0.843
3439	0.8493
3448	0.8549
3457	0.86
3466	0.8642
3475	0.868
3484	0.8714
3493	0.8733
3502	0.8752
3511	0.8753
3520	0.8754
3529	0.8725
3538	0.8648
3547	0.8473
3556	0.8195
3565	0.8058
3574	0.7997
3583	0.8149
3592	0.8512
3601	0.8752
3610	0.8811
3619	0.8818
3628	0.8821
3637	0.8821
3646	0.8824
3655	0.8827
3664	0.883
3673	0.8828
3682	0.8828
3691	0.8828
3700	0.8833
3709	0.8836
3718	0.8842
3727	0.885
3736	0.8858
3745	0.8863
3754	0.8868
3763	0.8871
3772	0.8871
3781	0.8873
3790	0.8875
