Infrared Spectrum: ACETIC ACID
Formula: C2 H4 O2
CAS: 64-19-7
State: SOLUTION (10% IN CCl4 FOR 3800-1300, 10% IN CS2 FOR 1300-650, 10% IN CCl4 FOR 650-250 CM^-^1) VERSUS SOLVENT
Boiling point: 118 C
Class: COBLENTZ III
Instrument: PERKIN-ELMER 521 (GRATING)
Instrument parameters: GRATING CHANGES AT 2000, 630 CM^-^1
Sampling: TRANSMISSION
Path length: 0.012, 0.012, AND 0.010 CM (CsBr CELL)
Resolution: 4
Origin: DOW CORNING CORP.
1/CM	TRANSMITTANCE
234.483	0.814
244.335	0.817
254.187	0.824
264.04	0.832
273.892	0.853
283.744	0.863
293.596	0.864
303.449	0.871
313.301	0.88
323.153	0.899
333.005	0.903
342.857	0.914
352.71	0.908
362.562	0.912
372.414	0.911
382.266	0.914
392.119	0.903
401.971	0.899
411.823	0.893
421.675	0.885
431.527	0.872
441.38	0.86
451.232	0.84
461.084	0.812
470.936	0.668
480.789	0.565
490.641	0.826
500.493	0.853
510.345	0.853
520.197	0.849
530.05	0.84
539.902	0.846
549.754	0.853
559.606	0.856
569.459	0.849
579.311	0.833
589.163	0.83
599.015	0.814
608.867	0.774
618.72	0.593
628.572	0.488
638.424	0.779
648.276	0.824
658.129	0.856
667.981	0.849
677.833	0.876
687.685	0.872
697.537	0.875
707.39	0.876
717.242	0.871
727.094	0.868
736.946	0.864
746.798	0.836
756.651	0.787
766.503	0.765
776.355	0.787
786.207	0.828
796.06	0.837
805.912	0.829
815.764	0.817
825.616	0.77
835.468	0.663
845.321	0.676
855.173	0.672
865.025	0.667
874.877	0.642
884.73	0.581
894.582	0.578
904.434	0.571
914.286	0.519
924.138	0.457
933.991	0.434
943.843	0.467
953.695	0.566
963.547	0.685
973.4	0.748
983.252	0.766
993.104	0.746
1002.96	0.706
1012.81	0.636
1022.66	0.7
1032.51	0.685
1042.37	0.638
1052.22	0.633
1062.07	0.68
1071.92	0.699
1081.77	0.703
1091.63	0.71
1101.48	0.732
1111.33	0.754
1121.18	0.777
1131.04	0.814
1140.89	0.836
1150.74	0.846
1160.59	0.844
1170.44	0.832
1180.3	0.834
1190.15	0.849
1200	0.845
1209.85	0.838
1219.71	0.83
1229.56	0.812
1239.41	0.761
1249.26	0.696
1259.11	0.508
1268.97	0.362
1278.82	0.083
1288.67	0.057
1298.52	0.4301
1308.38	0.711
1318.23	0.82
1328.08	0.845
1337.93	0.836
1347.78	0.747
1357.64	0.7021
1367.49	0.773
1377.34	0.734
1387.19	0.669
1397.05	0.519
1406.9	0.324
1416.75	0.297
1426.6	0.406
1436.45	0.561
1446.31	0.695
1456.16	0.766
1466.01	0.8
1475.86	0.821
1485.72	0.813
1495.57	0.794
1505.42	0.766
1515.27	0.759
1525.12	0.787
1534.98	0.777
1544.83	0.774
1554.68	0.793
1564.53	0.813
1574.39	0.816
1584.24	0.826
1594.09	0.842
1603.94	0.853
1613.79	0.852
1623.65	0.833
1633.5	0.808
1643.35	0.778
1653.2	0.761
1663.06	0.727
1672.91	0.684
1682.76	0.597
1692.61	0.385
1702.46	0.044
1712.32	0.009
1722.17	0.092
1732.02	0.39
1741.87	0.565
1751.73	0.554
1761.58	0.539
1771.43	0.582
1781.28	0.665
1791.13	0.781
1800.99	0.817
1810.84	0.829
1820.69	0.837
1830.54	0.836
1840.4	0.841
1850.25	0.853
1860.1	0.856
1869.95	0.859
1879.8	0.861
1889.66	0.863
1899.51	0.864
1909.36	0.873
1919.21	0.88
1929.07	0.88
1938.92	0.879
1948.77	0.881
1958.62	0.877
1968.47	0.881
1978.33	0.881
1988.18	0.888
1998.03	0.891
2007.88	0.889
2017.73	0.884
2027.59	0.883
2037.44	0.883
2047.29	0.887
2057.14	0.889
2067	0.891
2076.85	0.891
2086.7	0.889
2096.55	0.887
2106.4	0.8849
2116.26	0.8795
2126.11	0.872
2135.96	0.8614
2145.81	0.8551
2155.67	0.853
2165.52	0.8529
2175.37	0.8627
2185.22	0.8745
2195.07	0.8768
2204.93	0.8773
2214.78	0.873
2224.63	0.869
2234.48	0.864
2244.34	0.852
2254.19	0.8546
2264.04	0.86
2273.89	0.8537
2283.74	0.842
2293.6	0.8447
2303.45	0.8545
2313.3	0.856
2323.15	0.855
2333.01	0.8527
2342.86	0.853
2352.71	0.851
2362.56	0.8349
2372.41	0.836
2382.27	0.8333
2392.12	0.832
2401.97	0.8253
2411.82	0.8147
2421.68	0.8107
2431.53	0.808
2441.38	0.8021
2451.23	0.7944
2461.08	0.7898
2470.94	0.786
2480.79	0.7774
2490.64	0.7584
2500.49	0.7495
2510.35	0.7282
2520.2	0.7053
2530.05	0.6706
2539.9	0.6327
2549.75	0.5913
2559.61	0.6175
2569.46	0.6692
2579.31	0.696
2589.16	0.679
2599.02	0.652
2608.87	0.6002
2618.72	0.5224
2628.57	0.5057
2638.42	0.5686
2648.28	0.5895
2658.13	0.5761
2667.98	0.5383
2677.83	0.5274
2687.69	0.5434
2697.54	0.5809
2707.39	0.5986
2717.24	0.608
2727.09	0.614
2736.95	0.6096
2746.8	0.5904
2756.65	0.5722
2766.5	0.5576
2776.36	0.551
2786.21	0.5503
2796.06	0.559
2805.91	0.5604
2815.76	0.5474
2825.62	0.5307
2835.47	0.527
2845.32	0.523
2855.17	0.5141
2865.03	0.4979
2874.88	0.4774
2884.73	0.434
2894.58	0.4
2904.43	0.3603
2914.29	0.3478
2924.14	0.344
2933.99	0.3547
2943.84	0.378
2953.7	0.4148
2963.55	0.4229
2973.4	0.3599
2983.25	0.3417
2993.1	0.339
3002.96	0.3403
3012.81	0.3462
3022.66	0.35
3032.51	0.347
3042.37	0.351
3052.22	0.3612
3062.07	0.3815
3071.92	0.4023
3081.77	0.408
3091.63	0.4018
3101.48	0.3981
3111.33	0.4121
3121.18	0.4183
3131.04	0.4531
3140.89	0.4733
3150.74	0.4892
3160.59	0.5031
3170.44	0.511
3180.3	0.523
3190.15	0.54
3200	0.551
3209.85	0.569
3219.71	0.589
3229.56	0.6119
3239.41	0.6327
3249.26	0.652
3259.11	0.6758
3268.97	0.6967
3278.82	0.7109
3288.67	0.7338
3298.52	0.7497
3308.38	0.7648
3318.23	0.7807
3328.08	0.7949
3337.93	0.8078
3347.78	0.813
3357.64	0.8177
3367.49	0.8277
3377.34	0.8368
3387.19	0.8547
3397.05	0.863
3406.9	0.8707
3416.75	0.8768
3426.6	0.8838
3436.45	0.8888
3446.31	0.893
3456.16	0.8958
3466.01	0.897
3475.86	0.9
3485.72	0.9
3495.57	0.8993
3505.42	0.8953
3515.27	0.8851
3525.12	0.8797
3534.98	0.8944
3544.83	0.9107
3554.68	0.9147
3564.53	0.9228
3574.39	0.9273
3584.24	0.924
3594.09	0.923
3603.94	0.9247
3613.79	0.924
3623.65	0.922
3633.5	0.924
3643.35	0.927
3653.2	0.926
3663.06	0.9234
3672.91	0.923
3682.76	0.924
3692.61	0.926
3702.46	0.9288
3712.32	0.9276
3722.17	0.932
3732.02	0.93
3741.87	0.9284
3751.73	0.932
3761.58	0.9249
3771.43	0.926
3781.28	0.928
3791.13	0.928
