Infrared Spectrum: Acetic acid
Formula: C 2 H 4 O 2
CAS: 64-19-7
State: gas
Origin: Sadtler Research Labs Under US-EPA Contract
1/CM	ABSORBANCE
450	0.252991
462	0.206891
474	0.202281
486	0.196833
498	0.215413
510	0.256344
522	0.215972
534	0.418253
546	0.197951
558	0.256763
570	0.291129
582	0.311664
594	0.320744
606	0.270593
618	0.211222
630	0.237764
642	0.303981
654	0.437531
666	0.17504
678	0.167916
690	0.102258
702	0.0437252
714	0.02305
726	0.0142491
738	0.0115949
750	0.00838182
762	0.00740394
774	0.0044703
786	0
798	0.00782303
810	0.00866121
822	0.0135506
834	0.0240279
846	0.02305
858	0.0279394
870	0.0236088
882	0.0120139
894	0.00600697
906	0.00614667
918	0.00838182
930	0.0148079
942	0.0304539
954	0.0715249
966	0.151432
978	0.210384
990	0.209965
1002	0.213178
1014	0.155483
1026	0.0720837
1038	0.0497321
1050	0.0828403
1062	0.0863327
1074	0.0947146
1086	0.093597
1098	0.0833991
1110	0.0681721
1122	0.0725027
1134	0.128801
1146	0.280232
1158	0.50724
1170	0.722373
1182	0.773921
1194	0.651826
1206	0.515622
1218	0.205913
1230	0.101979
1242	0.113853
1254	0.162328
1266	0.212898
1278	0.214714
1290	0.180628
1302	0.140256
1314	0.071944
1326	0.0426076
1338	0.0472176
1350	0.0748776
1362	0.132293
1374	0.187473
1386	0.226728
1398	0.226449
1410	0.161071
1422	0.0973688
1434	0.0916412
1446	0.0684515
1458	0.0532246
1470	0.0269615
1482	0.0189988
1494	0.017043
1506	0.0180209
1518	0.0185797
1530	0.0181606
1542	0.017043
1554	0.0156461
1566	0.0153667
1578	0.0167636
1590	0.01383
1602	0.0120139
1614	0.0110361
1626	0.00782303
1638	0.00782303
1650	0.00810243
1662	0.0125727
1674	0.0215133
1686	0.0287776
1698	0.029057
1710	0.0346449
1722	0.0516879
1734	0.0888473
1746	0.169313
1758	0.469382
1770	1.06687
1782	1.20111
1794	1.15166
1806	1.23604
1818	0.449266
1830	0.0956924
1842	0.0277997
1854	0.0156461
1866	0.0108964
1878	0.00810243
1890	0.00740394
1902	0.00656576
1914	0.00684515
1926	0.00698485
1938	0.00614667
1950	0.00642606
1962	0.00656576
1974	0.00726424
1986	0.00866121
1998	0.0093597
2010	0.0101979
2022	0.0101979
2034	0.00852152
2046	0.00558788
2058	0.00391152
2070	0.00153667
2082	0.00111758
2094	0.00391152
2106	0.00488939
2118	0.00419091
2130	0.00405121
2142	0.00530849
2154	0.00628636
2166	0.00684515
2178	0.00642606
2190	0.00656576
2202	0.00670546
2214	0.00656576
2226	0.00726424
2238	0.00670546
2250	0.00558788
2262	0.00419091
2274	0.00419091
2286	0.00349242
2298	0.00153667
2310	0.000279394
2322	0.00153667
2334	0.00265424
2346	0.00167636
2358	0.00307333
2370	0.00153667
2382	0.00251455
2394	0.00321303
2406	0.00335273
2418	0.00279394
2430	0.00405121
2442	0.00363212
2454	0.00461
2466	0.0047497
2478	0.00488939
2490	0.0047497
2502	0.00377182
2514	0.00377182
2526	0.00265424
2538	0.00223515
2550	0.00209545
2562	0.00153667
2574	0.000977879
2586	0.000838182
2598	0.00251455
2610	0.00405121
2622	0.00614667
2634	0.00544818
2646	0.00670546
2658	0.00656576
2670	0.00139697
2682	0.00111758
2694	0.000558788
2706	0.000558788
2718	0.000558788
2730	0.000698485
2742	0.000279394
2754	0.00153667
2766	0.00139697
2778	0.00139697
2790	0.00209545
2802	0.00195576
2814	0.000419091
2826	0.00139697
2838	0.00223515
2850	0.00279394
2862	0.00223515
2874	0.00279394
2886	0.00391152
2898	0.00461
2910	0.00600697
2922	0.00894061
2934	0.0149476
2946	0.0185797
2958	0.0205355
2970	0.02305
2982	0.0169033
2994	0.0160652
3006	0.0146682
3018	0.0187194
3030	0.0191385
3042	0.0202561
3054	0.0213736
3066	0.0176018
3078	0.0176018
3090	0.0174621
3102	0.0156461
3114	0.0110361
3126	0.00977879
3138	0.0101979
3150	0.0090803
3162	0.00684515
3174	0.00684515
3186	0.00726424
3198	0.00726424
3210	0.00698485
3222	0.00628636
3234	0.00502909
3246	0.00628636
3258	0.0047497
3270	0.00237485
3282	0.00293364
3294	0.00391152
3306	0.00307333
3318	0.00321303
3330	0.00461
3342	0.00349242
3354	0.00307333
3366	0.00377182
3378	0.00405121
3390	0.00335273
3402	0.00405121
3414	0.00153667
3426	0.00223515
3438	0.00237485
3450	0.00349242
3462	0.00405121
3474	0.0044703
3486	0.0044703
3498	0.00614667
3510	0.0047497
3522	0.00796273
3534	0.0188591
3546	0.0551803
3558	0.171269
3570	0.235948
3582	0.33192
3594	0.229941
3606	0.14766
3618	0.0305936
3630	0.0110361
3642	0.00684515
3654	0.00740394
3666	0.0047497
3678	0.00600697
3690	0.00754364
3702	0.00614667
3714	0.00586727
3726	0.00614667
3738	0.00796273
3750	0.00852152
3762	0.00153667
3774	0.00433061
3786	0.00321303
3798	0.00307333
3810	0.00293364
3822	0.0047497
3834	0.00209545
3846	0.00279394
3858	0.00963909
3870	0.0094994
3882	0.0113155
3894	0.0115949
3906	0.0111758
3918	0.0047497
3930	0.00433061
3942	0.00852152
3954	0.00223515
3966	0.00167636
