Infrared Spectrum: 2-Propanone, 1-chloro-
Formula: C 3 H 5 Cl O
CAS: 78-95-5
State: gas
Origin: Sadtler Research Labs Under US-EPA Contract
1/CM	ABSORBANCE
450	0.0503923
462	0.0293221
474	0.0540776
486	0.0540776
498	0.066896
510	0.0677773
522	0.0535168
534	0.0511935
546	0.0436627
558	0.0462264
570	0.0484696
582	0.0376541
594	0.00809161
606	0.00849219
618	0.00272391
630	0.00312449
642	0.00328472
654	0
666	0.00224322
678	0.0064092
690	0.0105752
702	0.0246754
714	0.0742666
726	0.127703
738	0.165998
750	0.107995
762	0.0785127
774	0.0527157
786	0.0613681
798	0.0907703
810	0.0926129
822	0.0701006
834	0.0488702
846	0.026438
858	0.0103348
870	0.00568817
882	0.0042461
894	0.00240345
906	0.00248357
918	0.00144207
930	0.00184264
942	0.00312449
954	0.00448644
966	0.00881265
978	0.0129786
990	0.0165838
1002	0.0203492
1014	0.0205896
1026	0.0232333
1038	0.0191475
1050	0.0156224
1062	0.0128985
1074	0.0126582
1086	0.0130587
1098	0.0163435
1110	0.0221919
1122	0.0295624
1134	0.0454252
1146	0.091972
1158	0.115045
1170	0.118009
1182	0.0959778
1194	0.122175
1206	0.20934
1218	0.378543
1230	0.365965
1242	0.233535
1254	0.122175
1266	0.105271
1278	0.0727444
1290	0.0520748
1302	0.0391762
1314	0.0308443
1326	0.031325
1338	0.061288
1350	0.154462
1362	0.252923
1374	0.286171
1386	0.137798
1398	0.0852424
1410	0.113603
1422	0.143326
1434	0.129225
1446	0.0802752
1458	0.0531162
1470	0.0382149
1482	0.0260374
1494	0.0190674
1506	0.017385
1518	0.017385
1530	0.014661
1542	0.0166639
1554	0.0140201
1566	0.0116968
1578	0.0123377
1590	0.00825185
1602	0.00793139
1614	0.00953369
1626	0.0064092
1638	0.0116968
1650	0.0113763
1662	0.011136
1674	0.0241947
1686	0.0463866
1698	0.084281
1710	0.193718
1722	0.418681
1734	0.699564
1746	0.80115
1758	0.534367
1770	0.280242
1782	0.132831
1794	0.0609675
1806	0.0289215
1818	0.011136
1830	0.0074507
1842	0.0042461
1854	0.00240345
1866	0.0042461
1878	0.00176253
1890	0.00120173
1902	0.00208299
1914	0.000560805
1926	0.00200287
1938	0.0032046
1950	0.00168242
1962	0.00288414
1974	0.00232334
1986	0.000881265
1998	0.00128184
2010	0.000400575
2022	0.000240345
2034	0.00120173
2046	0.00096138
2058	0.00104149
2070	0.00184264
2082	0.00168242
2094	0.00208299
2106	0.00232334
2118	0.000881265
2130	0.00152219
2142	0.00184264
2154	0.00176253
2166	0.00264379
2178	0.00232334
2190	0.00120173
2202	0.00192276
2214	0.00144207
2226	0.00128184
2238	0.00176253
2250	0.00112161
2262	0.00064092
2274	0.00096138
2286	8.0115e-05
2298	0.000560805
2310	0.00168242
2322	0.00096138
2334	0.00176253
2346	0.0032046
2358	0.00152219
2370	0.00264379
2382	0.00216311
2394	0.000881265
2406	0.00152219
2418	0.00064092
2430	0.00064092
2442	0.000881265
2454	0.00032046
2466	0.000240345
2478	0.000721035
2490	0.000721035
2502	0.00136195
2514	0.00104149
2526	0.000560805
2538	0.00080115
2550	0.00104149
2562	0.000721035
2574	0.00192276
2586	0.00192276
2598	0.00136195
2610	0.00136195
2622	0.00048069
2634	0.000721035
2646	0.00120173
2658	0.00112161
2670	0.0016023
2682	0.0016023
2694	0.000721035
2706	0.00096138
2718	0.00136195
2730	0.00064092
2742	0.00096138
2754	0.00064092
2766	0.000560805
2778	0.0016023
2790	0.00200287
2802	0.00240345
2814	0.0037654
2826	0.00432621
2838	0.00512736
2850	0.00568817
2862	0.00552794
2874	0.00616885
2886	0.00777116
2898	0.00913311
2910	0.0132991
2922	0.0220316
2934	0.0433422
2946	0.0640119
2958	0.0676972
2970	0.0566413
2982	0.0422206
2994	0.0358915
3006	0.0361319
3018	0.0394166
3030	0.0357313
3042	0.0224322
3054	0.0159429
3066	0.0128985
3078	0.0105752
3090	0.00881265
3102	0.0074507
3114	0.00624897
3126	0.00440632
3138	0.00256368
3150	0.00224322
3162	0.00200287
3174	0.00104149
3186	0.0016023
3198	0.00096138
3210	0.00048069
3222	0.00112161
3234	0.00064092
3246	0.00112161
3258	0.00096138
3270	0.000240345
3282	0.000881265
3294	0.00136195
3306	0.00064092
3318	0.00048069
3330	0.00064092
3342	0.000240345
3354	0.000881265
3366	0.00144207
3378	0.00016023
3390	0.00192276
3402	0.00216311
3414	0.00288414
3426	0.00600863
3438	0.00985414
3450	0.014661
3462	0.0182662
3474	0.0136997
3486	0.00897288
3498	0.00664954
3510	0.00368529
3522	0.00392564
3534	0.00296425
3546	0.00168242
3558	0.00200287
3570	0.00392564
3582	0.00312449
3594	0.00304437
3606	0.00240345
3618	0.00184264
3630	0.00368529
3642	0.00136195
3654	0.00144207
3666	0.00216311
3678	0.00168242
3690	0.00240345
3702	0.00216311
3714	0.00208299
3726	0.0032046
3738	0.00120173
3750	0.00312449
3762	0.00240345
3774	0.00232334
3786	0.00232334
3798	0.00184264
3810	0.00264379
3822	0.00232334
3834	0.00312449
3846	0.00200287
3858	0.00200287
3870	0.00272391
3882	0.00208299
3894	0.00232334
3906	0.00352506
3918	0.00176253
3930	0.00280402
3942	0.00344495
3954	0.00184264
3966	0.00360517
