Infrared Spectrum: 2-PROPANONE, 1-CHLORO-
Formula: C3 H5 Cl O
CAS: 78-95-5
State: VAPOR (18 MICROLITER AT 180 C)
Boiling point: 119 C
Class: COBLENTZ
Instrument: PERKIN-ELMER 180 (GRATING)
Path length: 5 CM KBr CELL, CELL VOLUME: 80 CM^3
Resolution: 2-3 CM^-^1
Origin: PERKIN ELMER CORP. (M. ZELLER)
1/CM	TRANSMITTANCE
409.091	0.473
418.182	0.558
427.273	0.617
436.364	0.682
445.455	0.734
454.546	0.767
463.637	0.778
472.728	0.77
481.819	0.775
490.909	0.774
500	0.779
509.091	0.763
518.182	0.763
527.273	0.772
536.364	0.798
545.455	0.813
554.546	0.828
563.637	0.832
572.728	0.853
581.819	0.875
590.91	0.932
600.001	0.962
609.092	0.977
618.183	0.981
627.274	0.986
636.364	0.992
645.455	0.988
654.546	0.976
663.637	0.964
672.728	0.945
681.819	0.96
690.91	0.955
700.001	0.926
709.092	0.838
718.183	0.7081
727.274	0.663
736.365	0.64
745.456	0.7697
754.547	0.828
763.638	0.851
772.729	0.855
781.82	0.844
790.91	0.792
800.001	0.754
809.092	0.755
818.183	0.788
827.274	0.839
836.365	0.881
845.456	0.921
854.547	0.953
863.638	0.968
872.729	0.975
881.82	0.984
890.911	0.986
900.002	0.983
909.093	0.984
918.184	0.99
927.275	0.99
936.366	0.99
945.456	0.989
954.547	0.979
963.638	0.969
972.729	0.962
981.82	0.951
990.911	0.947
1000	0.932
1009.09	0.911
1018.18	0.899
1027.27	0.9
1036.37	0.908
1045.46	0.924
1054.55	0.932
1063.64	0.939
1072.73	0.947
1081.82	0.946
1090.91	0.943
1100	0.934
1109.09	0.92
1118.18	0.902
1127.28	0.873
1136.37	0.818
1145.46	0.728
1154.55	0.671
1163.64	0.639
1172.73	0.6629
1181.82	0.686
1190.91	0.63
1200	0.5331
1209.09	0.3811
1218.18	0.258
1227.28	0.263
1236.37	0.309
1245.46	0.5189
1254.55	0.654
1263.64	0.695
1272.73	0.751
1281.82	0.804
1290.91	0.839
1300	0.868
1309.09	0.877
1318.18	0.883
1327.28	0.856
1336.37	0.772
1345.46	0.614
1354.55	0.4451
1363.64	0.372
1372.73	0.335
1381.82	0.4419
1390.91	0.6249
1400	0.681
1409.09	0.65
1418.19	0.6
1427.28	0.604
1436.37	0.635
1445.46	0.719
1454.55	0.784
1463.64	0.826
1472.73	0.855
1481.82	0.881
1490.91	0.896
1500	0.908
1509.09	0.894
1518.19	0.909
1527.28	0.912
1536.37	0.915
1545.46	0.909
1554.55	0.919
1563.64	0.903
1572.73	0.932
1581.82	0.929
1590.91	0.943
1600	0.945
1609.1	0.947
1618.19	0.947
1627.28	0.941
1636.37	0.937
1645.46	0.939
1654.55	0.928
1663.64	0.928
1672.73	0.899
1681.82	0.855
1690.91	0.771
1700	0.654
1709.1	0.4959
1718.19	0.2671
1727.28	0.116
1736.37	0.054
1745.46	0.048
1754.55	0.095
1763.64	0.207
1772.73	0.3821
1781.82	0.5559
1790.91	0.707
1800	0.821
1809.1	0.892
1818.19	0.924
1827.28	0.945
1836.37	0.953
1845.46	0.958
1854.55	0.966
1863.64	0.969
1872.73	0.964
1881.82	0.969
1890.91	0.972
1900.01	0.971
1909.1	0.969
1918.19	0.968
1927.28	0.967
1936.37	0.967
1945.46	0.963
1954.55	0.967
1963.64	0.971
1972.73	0.969
1981.82	0.967
1990.91	0.967
2000.01	0.966
2009.1	0.9595
2018.19	0.9561
2027.28	0.955
2036.37	0.9531
2045.46	0.956
2054.55	0.9513
2063.64	0.95
2072.73	0.95
2081.82	0.949
2090.91	0.949
2100.01	0.947
2109.1	0.949
2118.19	0.95
2127.28	0.945
2136.37	0.945
2145.46	0.9422
2154.55	0.941
2163.64	0.941
2172.73	0.942
2181.82	0.9427
2190.92	0.9452
2200.01	0.9467
2209.1	0.9458
2218.19	0.943
2227.28	0.9461
2236.37	0.949
2245.46	0.949
2254.55	0.949
2263.64	0.946
2272.73	0.945
2281.82	0.943
2290.92	0.939
2300.01	0.937
2309.1	0.9266
2318.19	0.9191
2327.28	0.9155
2336.37	0.915
2345.46	0.9204
2354.55	0.9081
2363.64	0.8994
2372.73	0.9154
2381.82	0.9301
2390.92	0.941
2400.01	0.9417
2409.1	0.9418
2418.19	0.941
2427.28	0.9382
2436.37	0.9383
2445.46	0.9387
2454.55	0.9367
2463.64	0.9381
2472.73	0.937
2481.83	0.938
2490.92	0.937
2500.01	0.9343
2509.1	0.933
2518.19	0.933
2527.28	0.9358
2536.37	0.9324
2545.46	0.9358
2554.55	0.9324
2563.64	0.93
2572.73	0.93
2581.83	0.93
2590.92	0.932
2600.01	0.932
2609.1	0.932
2618.19	0.932
2627.28	0.93
2636.37	0.9291
2645.46	0.929
2654.55	0.928
2663.64	0.925
2672.74	0.925
2681.83	0.9261
2690.92	0.9252
2700.01	0.9246
2709.1	0.9244
2718.19	0.9207
2727.28	0.92
2736.37	0.9207
2745.46	0.92
2754.55	0.92
2763.64	0.92
2772.74	0.919
2781.83	0.917
2790.92	0.912
2800.01	0.911
2809.1	0.9055
2818.19	0.903
2827.28	0.9
2836.37	0.8972
2845.46	0.8919
2854.55	0.891
2863.64	0.8899
2872.74	0.8855
2881.83	0.882
2890.92	0.8755
2900.01	0.865
2909.1	0.8437
2918.19	0.8193
2927.28	0.7668
2936.37	0.7318
2945.46	0.6906
2954.55	0.6928
2963.65	0.7111
2972.74	0.7472
2981.83	0.7761
2990.92	0.7827
3000.01	0.7823
3009.1	0.7736
3018.19	0.7803
3027.28	0.7914
3036.37	0.8166
3045.46	0.8423
3054.55	0.8495
3063.65	0.8552
3072.74	0.859
3081.83	0.8634
3090.92	0.8682
3100.01	0.872
3109.1	0.8781
3118.19	0.881
3127.28	0.883
3136.37	0.886
3145.46	0.8872
3154.55	0.889
3163.65	0.89
3172.74	0.89
3181.83	0.89
3190.92	0.891
3200.01	0.892
3209.1	0.891
3218.19	0.891
3227.28	0.8945
3236.37	0.895
3245.46	0.894
3254.56	0.891
3263.65	0.894
3272.74	0.894
3281.83	0.894
3290.92	0.894
3300.01	0.892
3309.1	0.892
3318.19	0.892
3327.28	0.892
3336.37	0.892
3345.46	0.892
3354.56	0.8905
3363.65	0.887
3372.74	0.8898
3381.83	0.8862
3390.92	0.882
3400.01	0.8823
3409.1	0.8788
3418.19	0.8701
3427.28	0.8619
3436.37	0.8473
3445.46	0.8359
3454.56	0.8304
3463.65	0.8392
3472.74	0.8492
3481.83	0.859
3490.92	0.8645
3500.01	0.872
3509.1	0.8745
3518.19	0.877
3527.28	0.879
3536.37	0.881
3545.47	0.882
3554.56	0.882
3563.65	0.8736
3572.74	0.8779
3581.83	0.8783
3590.92	0.877
3600.01	0.8783
3609.1	0.875
3618.19	0.8771
3627.28	0.874
3636.37	0.877
3645.47	0.8772
3654.56	0.875
3663.65	0.8733
3672.74	0.8704
3681.83	0.8737
3690.92	0.874
3700.01	0.8733
3709.1	0.87
3718.19	0.869
3727.28	0.8659
3736.37	0.865
3745.47	0.862
3754.56	0.8686
3763.65	0.87
3772.74	0.87
3781.83	0.869
3790.92	0.868
3800.01	0.868
3809.1	0.8655
3818.19	0.864
3827.28	0.868
3836.38	0.8651
3845.47	0.8632
3854.56	0.862
3863.65	0.861
3872.74	0.8619
3881.83	0.862
3890.92	0.86
3900.01	0.862
3909.1	0.8602
3918.19	0.859
3927.28	0.859
3936.38	0.8567
3945.47	0.857
3954.56	0.8585
3963.65	0.859
3972.74	0.857
3981.83	0.8563
3990.92	0.856
