Infrared Spectrum: ETHYLDIMETHYLSILANOL
Formula: C4 H12 O Si
CAS: 5906-73-0
State: SOLUTION (5% IN CCl4 FOR 3800-1300, 3% IN CS2 FOR 1300-635, AND 5% IN CCl4 FOR 635-250 CM^-^1)
Class: COBLENTZ III
Instrument: PERKIN-ELMER 521 (GRATING)
Instrument parameters: FILTERS AT 3150, 2500, 2000, 1150, 700, 410. GRATING CHANGES: 2000, 630 CM^-^1
Sampling: TRANSMISSION
Path length: 0.011 CM, 0.011 CM, AND 0.021 CM
Resolution: 2
Origin: DOW CORNING CORP.
1/CM	TRANSMITTANCE
252.927	0.713
262.295	0.703
271.662	0.675
281.03	0.622
290.398	0.579
299.765	0.607
309.133	0.673
318.501	0.688
327.869	0.706
337.236	0.7
346.604	0.706
355.972	0.678
365.339	0.546
374.707	0.645
384.075	0.744
393.442	0.793
402.81	0.797
412.178	0.796
421.546	0.807
430.913	0.804
440.281	0.814
449.649	0.821
459.016	0.813
468.384	0.819
477.752	0.825
487.119	0.82
496.487	0.812
505.855	0.805
515.223	0.804
524.59	0.8
533.958	0.796
543.326	0.793
552.693	0.786
562.061	0.778
571.429	0.771
580.796	0.763
590.164	0.744
599.532	0.688
608.9	0.696
618.267	0.729
627.635	0.729
637.003	0.865
646.37	0.865
655.738	0.865
665.106	0.857
674.473	0.819
683.841	0.7
693.209	0.625
702.577	0.674
711.944	0.752
721.312	0.765
730.68	0.73
740.047	0.689
749.415	0.649
758.783	0.572
768.15	0.433
777.518	0.308
786.886	0.299
796.254	0.423
805.621	0.448
814.989	0.404
824.357	0.307
833.724	0.16
843.092	0.166
852.46	0.182
861.827	0.207
871.195	0.277
880.563	0.413
889.931	0.504
899.298	0.656
908.666	0.763
918.034	0.812
927.401	0.826
936.769	0.82
946.137	0.789
955.504	0.599
964.872	0.673
974.24	0.786
983.608	0.818
992.975	0.808
1002.34	0.727
1011.71	0.566
1021.08	0.756
1030.45	0.787
1039.81	0.779
1049.18	0.768
1058.55	0.764
1067.92	0.773
1077.28	0.786
1086.65	0.801
1096.02	0.819
1105.39	0.835
1114.76	0.848
1124.12	0.855
1133.49	0.863
1142.86	0.871
1152.23	0.883
1161.59	0.89
1170.96	0.891
1180.33	0.892
1189.7	0.892
1199.06	0.892
1208.43	0.886
1217.8	0.86
1227.17	0.794
1236.54	0.677
1245.9	0.506
1255.27	0.3421
1264.64	0.751
1274.01	0.8
1283.37	0.8
1292.74	0.8
1302.11	0.8
1311.48	0.8
1320.84	0.8
1330.21	0.8
1339.58	0.8
1348.95	0.799
1358.32	0.791
1367.68	0.773
1377.05	0.726
1386.42	0.727
1395.79	0.673
1405.15	0.603
1414.52	0.617
1423.89	0.686
1433.26	0.702
1442.62	0.703
1451.99	0.627
1461.36	0.631
1470.73	0.744
1480.1	0.793
1489.46	0.819
1498.83	0.836
1508.2	0.849
1517.57	0.856
1526.93	0.862
1536.3	0.87
1545.67	0.876
1555.04	0.876
1564.4	0.872
1573.77	0.871
1583.14	0.867
1592.51	0.856
1601.88	0.84
1611.24	0.829
1620.61	0.825
1629.98	0.826
1639.35	0.835
1648.71	0.846
1658.08	0.853
1667.45	0.86
1676.82	0.867
1686.19	0.872
1695.55	0.876
1704.92	0.878
1714.29	0.879
1723.66	0.882
1733.02	0.885
1742.39	0.886
1751.76	0.888
1761.13	0.89
1770.49	0.89
1779.86	0.89
1789.23	0.89
1798.6	0.892
1807.97	0.892
1817.33	0.89
1826.7	0.886
1836.07	0.886
1845.44	0.889
1854.8	0.891
1864.17	0.892
1873.54	0.892
1882.91	0.892
1892.27	0.895
1901.64	0.895
1911.01	0.891
1920.38	0.889
1929.75	0.882
1939.11	0.883
1948.48	0.888
1957.85	0.892
1967.22	0.892
1976.58	0.892
1985.95	0.892
1995.32	0.861
2004.69	0.898
2014.05	0.899
2023.42	0.8986
2032.79	0.899
2042.16	0.8983
2051.53	0.898
2060.89	0.898
2070.26	0.899
2079.63	0.899
2089	0.898
2098.36	0.898
2107.73	0.8989
2117.1	0.9
2126.47	0.9
2135.83	0.899
2145.2	0.902
2154.57	0.903
2163.94	0.903
2173.31	0.9031
2182.67	0.904
2192.04	0.905
2201.41	0.906
2210.78	0.906
2220.14	0.907
2229.51	0.9077
2238.88	0.91
2248.25	0.91
2257.61	0.91
2266.98	0.911
2276.35	0.912
2285.72	0.913
2295.09	0.9136
2304.45	0.9223
2313.82	0.925
2323.19	0.925
2332.56	0.9243
2341.92	0.9214
2351.29	0.9192
2360.66	0.9172
2370.03	0.9142
2379.39	0.912
2388.76	0.912
2398.13	0.913
2407.5	0.913
2416.87	0.913
2426.23	0.9131
2435.6	0.914
2444.97	0.914
2454.34	0.914
2463.7	0.916
2473.07	0.916
2482.44	0.916
2491.81	0.916
2501.17	0.9164
2510.54	0.917
2519.91	0.918
2529.28	0.918
2538.65	0.918
2548.01	0.918
2557.38	0.918
2566.75	0.918
2576.12	0.918
2585.48	0.918
2594.85	0.917
2604.22	0.916
2613.59	0.914
2622.95	0.913
2632.32	0.912
2641.69	0.911
2651.06	0.91
2660.43	0.91
2669.79	0.91
2679.16	0.91
2688.53	0.91
2697.9	0.9099
2707.26	0.907
2716.63	0.8985
2726	0.891
2735.37	0.8935
2744.74	0.895
2754.1	0.893
2763.47	0.8896
2772.84	0.8752
2782.21	0.8357
2791.57	0.825
2800.94	0.8275
2810.31	0.8265
2819.68	0.8204
2829.04	0.8162
2838.41	0.8134
2847.78	0.795
2857.15	0.6971
2866.52	0.478
2875.88	0.3704
2885.25	0.4882
2894.62	0.4842
2903.99	0.4197
2913.35	0.4794
2922.72	0.5611
2932.09	0.4391
2941.46	0.3548
2950.82	0.118
2960.19	0.2707
2969.56	0.4963
2978.93	0.6925
2988.3	0.7474
2997.66	0.7619
3007.03	0.77
3016.4	0.769
3025.77	0.764
3035.13	0.7616
3044.5	0.7525
3053.87	0.7431
3063.24	0.7345
3072.6	0.7254
3081.97	0.7039
3091.34	0.6906
3100.71	0.6726
3110.08	0.6607
3119.44	0.6383
3128.81	0.6259
3138.18	0.6079
3147.55	0.584
3156.91	0.5646
3166.28	0.5384
3175.65	0.5175
3185.02	0.4832
3194.38	0.4671
3203.75	0.44
3213.12	0.4229
3222.49	0.4017
3231.86	0.3876
3241.22	0.3663
3250.59	0.3526
3259.96	0.3436
3269.33	0.334
3278.69	0.3304
3288.06	0.327
3297.43	0.327
3306.8	0.328
3316.16	0.332
3325.53	0.3395
3334.9	0.3475
3344.27	0.3551
3353.64	0.3631
3363	0.3744
3372.37	0.3886
3381.74	0.4027
3391.11	0.4216
3400.47	0.4405
3409.84	0.4528
3419.21	0.4659
3428.58	0.4909
3437.94	0.5
3447.31	0.5255
3456.68	0.5368
3466.05	0.56
3475.42	0.575
3484.78	0.5953
3494.15	0.6141
3503.52	0.6369
3512.89	0.6535
3522.25	0.6794
3531.62	0.7017
3540.99	0.7217
3550.36	0.7476
3559.72	0.7624
3569.09	0.7918
3578.46	0.8042
3587.83	0.8229
3597.2	0.8299
3606.56	0.8465
3615.93	0.8521
3625.3	0.856
3634.67	0.849
3644.03	0.8397
3653.4	0.8164
3662.77	0.7828
3672.14	0.6982
3681.5	0.6525
3690.87	0.5347
3700.24	0.5897
3709.61	0.7919
3718.98	0.8737
3728.34	0.8989
3737.71	0.9111
3747.08	0.921
3756.45	0.9158
3765.81	0.916
3775.18	0.916
3784.55	0.918
