Infrared Spectrum: 2,3-dimethylbutane
Formula: C 6 H 14
CAS: 79-29-8
State: gas
Instrument: HP-GC/MS/IRD
Origin: NIST Mass Spectrometry Data Center
1/CM	ABSORBANCE
550	0.0004056
562	0.000351
574	0.000273
586	0.000351
598	0.0001092
610	0.000234
622	0.0001716
634	0.0001326
646	0.0002106
658	0.0001794
670	0.0002262
682	0.000117
694	0.0001326
706	0.0002262
718	0.0002574
730	0.0002028
742	0.000234
754	0.000195
766	0.0001794
778	0.0001482
790	0.0001092
802	0.0001092
814	0.0001638
826	0.0002262
838	0.0002184
850	0.0003354
862	0.000429
874	0.0004368
886	0.0002184
898	0.0002886
910	0.000351
922	0.0004212
934	0.0004056
946	0.0003276
958	0.0002964
970	0.0003588
982	0.0005538
994	0.0006942
1006	0.000702
1018	0.0007722
1030	0.0012168
1042	0.0013494
1054	0.0011076
1066	0.0007488
1078	0.000624
1090	0.0004836
1102	0.0011154
1114	0.0024648
1126	0.0032526
1138	0.003003
1150	0.0020046
1162	0.001248
1174	0.0006084
1186	0.00039
1198	0.0003042
1210	0.0002808
1222	0.0003432
1234	0.0003978
1246	0.0004368
1258	0.000624
1270	0.000936
1282	0.001287
1294	0.0014586
1306	0.0012324
1318	0.0009672
1330	0.0008502
1342	0.0013572
1354	0.0030966
1366	0.0070746
1378	0.0100152
1390	0.0093054
1402	0.0043524
1414	0.0019344
1426	0.0019188
1438	0.0035256
1450	0.00624
1462	0.008892
1474	0.0078
1486	0.005187
1498	0.002496
1510	0.0011466
1522	0.0006864
1534	0.0005304
1546	0.0004134
1558	0.0004134
1570	0.0003354
1582	0.0003042
1594	0.0003042
1606	0.0003198
1618	0.0003588
1630	0.0003588
1642	0.00039
1654	0.0003588
1666	0.0003276
1678	0.000312
1690	0.0002964
1702	0.0002262
1714	0.0002028
1726	0.0001326
1738	0.0001482
1750	9.36e-05
1762	0.0001092
1774	0.0001326
1786	8.58e-05
1798	0.0001092
1810	0.0001014
1822	7.8e-05
1834	0.0001092
1846	7.02e-05
1858	7.8e-05
1870	0.0001014
1882	0.0001326
1894	0.0001014
1906	7.8e-05
1918	6.24e-05
1930	5.46e-05
1942	3.12e-05
1954	3.9e-05
1966	2.34e-05
1978	3.12e-05
1990	2.34e-05
2002	4.68e-05
2014	4.68e-05
2026	5.46e-05
2038	7.8e-05
2050	4.68e-05
2062	3.12e-05
2074	3.12e-05
2086	7.02e-05
2098	3.9e-05
2110	5.46e-05
2122	3.9e-05
2134	3.12e-05
2146	2.34e-05
2158	1.56e-05
2170	1.56e-05
2182	3.9e-05
2194	5.46e-05
2206	6.24e-05
2218	9.36e-05
2230	0.0001014
2242	0.0001014
2254	0.0001014
2266	9.36e-05
2278	8.58e-05
2290	0.000117
2302	0.0001326
2314	0.0001326
2326	0.000117
2338	0.000156
2350	0.0001482
2362	0.000195
2374	0.0002106
2386	0.0002028
2398	0.000234
2410	0.0002262
2422	0.0002028
2434	0.0002028
2446	0.000195
2458	0.000195
2470	0.0002028
2482	0.0002106
2494	0.0001872
2506	0.0002184
2518	0.0002028
2530	0.0002184
2542	0.0002418
2554	0.0002964
2566	0.0004134
2578	0.0005694
2590	0.0008034
2602	0.0008346
2614	0.0008112
2626	0.0007254
2638	0.000663
2650	0.0006474
2662	0.0006942
2674	0.0007644
2686	0.0007488
2698	0.0007332
2710	0.000897
2722	0.0011778
2734	0.0013572
2746	0.0013884
2758	0.0013416
2770	0.0013962
2782	0.0015054
2794	0.0016614
2806	0.0020124
2818	0.002457
2830	0.003003
2842	0.00429
2854	0.008502
2866	0.0190866
2878	0.0312
2890	0.0348036
2902	0.0296166
2914	0.0266058
2926	0.0298818
2938	0.038142
2950	0.054561
2962	0.0758316
2974	0.0675714
2986	0.0392418
2998	0.0155298
3010	0.0061074
3022	0.0034554
3034	0.0027456
3046	0.0024258
3058	0.0021528
3070	0.0018486
3082	0.0017004
3094	0.0015912
3106	0.0014898
3118	0.0014118
3130	0.0014118
3142	0.0014118
3154	0.0014508
3166	0.001443
3178	0.0013416
3190	0.0011466
3202	0.000975
3214	0.00078
3226	0.0005538
3238	0.0004524
3250	0.0003276
3262	0.0003042
3274	0.0002574
3286	0.0002652
3298	0.0003198
3310	0.0002652
3322	0.0002418
3334	0.0002418
3346	0.0002652
3358	0.0002808
3370	0.000273
3382	0.0002574
3394	0.0002496
3406	0.0001404
3418	0.0001872
3430	0.0001872
3442	0.0001638
3454	0.0001482
3466	0.0001248
3478	0.000156
3490	0.0001248
3502	0.0001326
3514	0.0001482
3526	0.0001248
3538	0.0001092
3550	9.36e-05
3562	0.0001092
3574	3.9e-05
3586	0.000117
3598	0.0001404
3610	0.0001248
3622	0.0001248
3634	0.0001248
3646	0.0001014
3658	0.0001326
3670	0.0001404
3682	0.0001326
3694	0.0001482
3706	0.0001872
3718	0.0001716
3730	0.0001482
3742	0.0001638
3754	0.0001482
3766	0.0001794
3778	0.0002262
3790	0.0002808
3802	0.0002886
3814	0.0002964
3826	0.0003588
3838	0.0003276
