Infrared Spectrum: 2,3-Dimethylbutane
Formula: C6 H14
CAS: 79-29-8
State: LIQUID (NEAT)
Class: COBLENTZ III
Instrument: DOW KBr FOREPRISM-GRATING
Instrument parameters: BLAZED AT 3.5, 12.0, 20.0 MICRON AND CHANGED AT 5.0, 7.5, 14.9 MICRON
Sampling: TRANSMISSION
Path length: 0.011 CM
Resolution: 2
Origin: DOW CHEMICAL COMPANY
1/CM	TRANSMITTANCE
3800	0.8353
3791	0.8325
3782	0.8289
3773	0.8256
3764	0.8427
3755	0.8696
3746	0.8825
3737	0.8895
3728	0.8898
3719	0.8936
3710	0.9048
3701	0.9068
3692	0.9071
3683	0.9018
3674	0.9
3665	0.9008
3656	0.9044
3647	0.9081
3638	0.9103
3629	0.9107
3620	0.9111
3611	0.911
3602	0.911
3593	0.9109
3584	0.911
3575	0.911
3566	0.9111
3557	0.9113
3548	0.9117
3539	0.9118
3530	0.9112
3521	0.9091
3512	0.905
3503	0.8928
3494	0.8771
3485	0.8716
3476	0.8708
3467	0.8717
3458	0.8728
3449	0.8727
3440	0.8691
3431	0.8618
3422	0.8556
3413	0.8546
3404	0.8537
3395	0.8525
3386	0.8511
3377	0.8377
3368	0.8212
3359	0.8121
3350	0.8078
3341	0.8111
3332	0.8223
3323	0.8275
3314	0.8274
3305	0.8119
3296	0.8092
3287	0.8128
3278	0.8178
3269	0.8176
3260	0.8161
3251	0.8111
3242	0.8015
3233	0.7831
3224	0.7533
3215	0.7078
3206	0.6508
3197	0.6046
3188	0.5599
3179	0.5251
3170	0.5106
3161	0.5092
3152	0.5296
3143	0.5677
3134	0.6001
3125	0.6312
3116	0.6539
3107	0.6682
3098	0.6784
3089	0.6838
3080	0.6845
3071	0.6675
3062	0.604
3053	0.5573
3044	0.5057
3035	0.4477
3026	0.3771
3017	0.2843
3008	0.1865
2999	0.0732
2990	0.0133
2981	0.0074
2972	0.0073
2963	0.0072
2954	0.0071
2945	0.007
2936	0.0069
2927	0.0068
2918	0.0067
2909	0.0066
2900	0.0065
2891	0.0064
2882	0.0064
2873	0.0063
2864	0.0062
2855	0.0061
2846	0.0084
2837	0.054
2828	0.1059
2819	0.1408
2810	0.1601
2801	0.1872
2792	0.2987
2783	0.4146
2774	0.4834
2765	0.4695
2756	0.4551
2747	0.4885
2738	0.5238
2729	0.5002
2720	0.3716
2711	0.4702
2702	0.6042
2693	0.6464
2684	0.6571
2675	0.5403
2666	0.4926
2657	0.6299
2648	0.67
2639	0.6734
2630	0.6742
2621	0.6568
2612	0.4902
2603	0.5283
2594	0.5262
2585	0.4549
2576	0.5955
2567	0.7197
2558	0.7962
2549	0.8315
2540	0.8336
2531	0.8375
2522	0.8481
2513	0.8471
2504	0.8425
2495	0.8396
2486	0.839
2477	0.8387
2468	0.8338
2459	0.8275
2450	0.8302
2441	0.8482
2432	0.8536
2423	0.8224
2414	0.8178
2405	0.8334
2396	0.8342
2387	0.8183
2378	0.7881
2369	0.7814
2360	0.799
2351	0.8236
2342	0.8383
2333	0.8368
2324	0.8334
2315	0.8398
2306	0.8451
2297	0.8484
2288	0.8592
2279	0.8617
2270	0.8671
2261	0.873
2252	0.8728
2243	0.8803
2234	0.8824
2225	0.8639
2216	0.8652
2207	0.8683
2198	0.8742
2189	0.8816
2180	0.8906
2171	0.8983
2162	0.9051
2153	0.909
2144	0.9073
2135	0.9049
2126	0.9044
2117	0.9051
2108	0.9062
2099	0.9071
2090	0.9071
2081	0.9056
2072	0.8984
2063	0.8985
2054	0.906
2045	0.9106
2036	0.9034
2027	0.8906
2018	0.8963
2009	0.9034
2000	0.9088
1991	0.9155
1982	0.9166
1973	0.9118
1964	0.9104
1955	0.916
1946	0.9183
1937	0.9185
1928	0.9155
1919	0.9115
1910	0.9093
1901	0.9062
1892	0.8952
1883	0.8898
1874	0.8892
1865	0.889
1856	0.8897
1847	0.8909
1838	0.8944
1829	0.9018
1820	0.9024
1811	0.9005
1802	0.9013
1793	0.9034
1784	0.8981
1775	0.8941
1766	0.8897
1757	0.8878
1748	0.8698
1739	0.8421
1730	0.838
1721	0.8458
1712	0.8411
1703	0.8278
1694	0.8168
1685	0.8067
1676	0.7984
1667	0.7915
1658	0.7862
1649	0.7846
1640	0.7844
1631	0.8075
1622	0.8224
1613	0.8268
1604	0.8287
1595	0.8351
1586	0.8385
1577	0.8334
1568	0.822
1559	0.8038
1550	0.7778
1541	0.7415
1532	0.602
1523	0.4987
1514	0.5116
1505	0.4338
1496	0.2705
1487	0.1112
1478	0.0177
1469	0.01
1460	0.0077
1451	0.008
1442	0.0325
1433	0.112
1424	0.2534
1415	0.3379
1406	0.3128
1397	0.1242
1388	0.014
1379	0.0081
1370	0.0073
1361	0.0704
1352	0.3488
1343	0.5154
1334	0.6278
1325	0.6632
1316	0.5848
1307	0.4312
1298	0.4241
1289	0.5099
1280	0.3454
1271	0.6103
1262	0.7258
1253	0.764
1244	0.7869
1235	0.8065
1226	0.8195
1217	0.8237
1208	0.8256
1199	0.7991
1190	0.7865
1181	0.7855
1172	0.7444
1163	0.5612
1154	0.1715
1145	0.2931
1136	0.2469
1127	0.026
1118	0.2257
1109	0.6329
1100	0.7411
1091	0.794
1082	0.8012
1073	0.7154
1064	0.4879
1055	0.6806
1046	0.549
1037	0.0975
1028	0.3982
1019	0.7358
1010	0.7662
1001	0.6857
992	0.3078
983	0.5389
974	0.7668
965	0.7896
956	0.7618
947	0.7856
938	0.8006
929	0.7587
920	0.568
911	0.6244
902	0.8074
893	0.8518
884	0.8554
875	0.765
866	0.5239
857	0.8413
848	0.8884
839	0.9047
830	0.9151
821	0.9215
812	0.9256
803	0.9283
794	0.9297
785	0.9314
776	0.9325
767	0.9324
758	0.9299
749	0.9253
740	0.9141
731	0.8436
722	0.8122
713	0.9038
704	0.9192
695	0.9253
686	0.9294
677	0.9299
668	0.9284
659	0.9255
650	0.9225
641	0.9206
632	0.9189
623	0.9171
614	0.9154
605	0.9138
596	0.9125
587	0.9091
578	0.9062
569	0.9063
560	0.8918
551	0.849
542	0.6287
533	0.7896
524	0.8585
515	0.8633
506	0.8673
497	0.8666
488	0.862
479	0.8148
470	0.7976
461	0.7971
452	0.7971
443	0.7964
434	0.7957
