Infrared Spectrum: 2,3-DIMETHYLBUTANE
Formula: C6 H14
CAS: 79-29-8
State: SOLUTION (10% CCl4 FOR 3800-1330, 10% CS2 FOR 1330-450 CM^-^1)
Class: COBLENTZ III
Instrument: DOW KBr FOREPRISM-GRATING
Instrument parameters: BLAZED AT 3.5, 12.0, 20.0 MICRON AND CHANGED AT 5.0, 7.5, 14.9 MICRON
Sampling: TRANSMISSION
Path length: 0.012 CM, 0.011 CM
Resolution: 2
Origin: DOW CHEMICAL COMPANY
1/CM	TRANSMITTANCE
441.331	0.964
450.088	0.971
458.844	0.976
467.601	0.984
476.357	0.994
485.114	1.002
493.87	1.009
502.627	1.017
511.384	1.02
520.14	1.02
528.897	1.019
537.653	0.973
546.41	1.041
555.166	1.043
563.923	1.042
572.68	1.042
581.436	1.039
590.193	1.045
598.949	1.046
607.706	1.047
616.462	1.043
625.219	1.041
633.975	1.028
642.732	1.016
651.489	1.02
660.245	1.038
669.002	1.06
677.758	1.065
686.515	1.065
695.271	1.063
704.028	1.06
712.785	1.054
721.541	1.031
730.298	1.069
739.054	1.076
747.811	1.076
756.567	1.076
765.324	1.075
774.081	1.069
782.837	1.065
791.594	1.067
800.35	1.064
809.107	1.065
817.863	1.063
826.62	1.054
835.377	1.024
844.133	0.967
852.89	0.88
861.646	0.853
870.403	0.921
879.159	0.994
887.916	1.028
896.672	1.028
905.429	1.001
914.186	0.983
922.942	1.017
931.699	1.027
940.455	1.031
949.212	1.019
957.968	1.034
966.725	1.034
975.482	1.02
984.238	0.864
992.995	1.008
1001.75	1.036
1010.51	1.032
1019.26	0.994
1028.02	0.867
1036.78	0.738
1045.53	1.017
1054.29	1.006
1063.05	0.961
1071.8	1.024
1080.56	1.036
1089.32	1.036
1098.07	1.03
1106.83	1.004
1115.59	0.883
1124.34	0.595
1133.1	0.916
1141.86	0.913
1150.61	0.823
1159.37	0.979
1168.13	1.012
1176.88	1.02
1185.64	1.024
1194.4	1.03
1203.15	1.043
1211.91	1.047
1220.67	1.047
1229.42	1.046
1238.18	1.039
1246.94	1.023
1255.69	1.02
1264.45	1.005
1273.2	0.954
1281.96	0.953
1290.72	0.935
1299.47	0.908
1308.23	0.921
1316.99	0.941
1325.74	0.932
1334.5	0.926
1343.26	0.901
1352.01	0.854
1360.77	0.69
1369.53	0.115
1378.28	0.108
1387.04	0.404
1395.8	0.778
1404.55	0.858
1413.31	0.849
1422.07	0.823
1430.82	0.746
1439.58	0.635
1448.34	0.475
1457.09	0.134
1465.85	0.045
1474.61	0.376
1483.36	0.654
1492.12	0.756
1500.88	0.758
1509.63	0.741
1518.39	0.72
1527.15	0.678
1535.9	0.595
1544.66	0.501
1553.41	0.502
1562.17	0.582
1570.93	0.676
1579.68	0.704
1588.44	0.742
1597.2	0.823
1605.95	0.901
1614.71	0.941
1623.47	0.946
1632.22	0.946
1640.98	0.947
1649.74	0.953
1658.49	0.96
1667.25	0.968
1676.01	0.975
1684.76	0.976
1693.52	0.976
1702.28	0.983
1711.03	0.986
1719.79	0.989
1728.55	0.984
1737.3	0.983
1746.06	0.991
1754.82	0.998
1763.57	0.993
1772.33	0.998
1781.09	0.998
1789.84	0.998
1798.6	0.997
1807.36	0.997
1816.11	0.995
1824.87	0.995
1833.63	0.995
1842.38	0.994
1851.14	0.99
1859.89	0.99
1868.65	0.997
1877.41	1
1886.16	0.993
1894.92	0.997
1903.68	1.001
1912.43	1.002
1921.19	1.002
1929.95	1.002
1938.7	1.002
1947.46	1.001
1956.22	1.001
1964.97	1
1973.73	0.995
1982.49	0.99
1991.24	0.986
2000	0.983
2008.76	0.983
2017.51	0.984
2026.27	0.984
2035.03	0.9871
2043.78	0.989
2052.54	0.99
2061.3	0.99
2070.05	0.989
2078.81	0.989
2087.57	0.989
2096.32	0.991
2105.08	0.991
2113.84	0.99
2122.59	0.99
2131.35	0.991
2140.1	0.991
2148.86	0.9899
2157.62	0.986
2166.37	0.984
2175.13	0.983
2183.89	0.9843
2192.64	0.9838
2201.4	0.98
2210.16	0.979
2218.91	0.976
2227.67	0.975
2236.43	0.975
2245.18	0.973
2253.94	0.9706
2262.7	0.9648
2271.45	0.9608
2280.21	0.956
2288.97	0.952
2297.72	0.949
2306.48	0.9563
2315.24	0.958
2323.99	0.9514
2332.75	0.949
2341.51	0.9533
2350.26	0.957
2359.02	0.9616
2367.78	0.9656
2376.53	0.969
2385.29	0.972
2394.05	0.9753
2402.8	0.9754
2411.56	0.978
2420.32	0.976
2429.07	0.9807
2437.83	0.982
2446.58	0.976
2455.34	0.978
2464.1	0.9784
2472.85	0.979
2481.61	0.979
2490.37	0.979
2499.12	0.9794
2507.88	0.982
2516.64	0.982
2525.39	0.9811
2534.15	0.9785
2542.91	0.975
2551.66	0.973
2560.42	0.9685
2569.18	0.958
2577.93	0.9124
2586.69	0.887
2595.45	0.8996
2604.2	0.9024
2612.96	0.8986
2621.72	0.934
2630.47	0.936
2639.23	0.938
2647.99	0.936
2656.74	0.9314
2665.5	0.895
2674.26	0.901
2683.01	0.93
2691.77	0.928
2700.53	0.9222
2709.28	0.9063
2718.04	0.8587
2726.79	0.8768
2735.55	0.8966
2744.31	0.9
2753.06	0.8814
2761.82	0.8797
2770.58	0.8907
2779.33	0.891
2788.09	0.8713
2796.85	0.8413
2805.6	0.7579
2814.36	0.7533
2823.12	0.7398
2831.87	0.6744
2840.63	0.5727
2849.39	0.3842
2858.14	0.1493
2866.9	0.0147
2875.66	0.012
2884.41	0.0411
2893.17	0.065
2901.93	0.0634
2910.68	0.0468
2919.44	0.0302
2928.2	0.0166
2936.95	0.0104
2945.71	0.006
2954.47	0.004
2963.22	0.0058
2971.98	0.0117
2980.74	0.0226
2989.49	0.2112
2998.25	0.4029
3007.01	0.6528
3015.76	0.7567
3024.52	0.8196
3033.27	0.862
3042.03	0.8852
3050.79	0.9046
3059.54	0.9199
3068.3	0.9339
3077.06	0.9459
3085.81	0.95
3094.57	0.95
3103.33	0.95
3112.08	0.9471
3120.84	0.943
3129.6	0.938
3138.35	0.931
3147.11	0.923
3155.87	0.913
3164.62	0.91
3173.38	0.912
3182.14	0.916
3190.89	0.9211
3199.65	0.9271
3208.41	0.9381
3217.16	0.9471
3225.92	0.957
3234.68	0.9601
3243.43	0.965
3252.19	0.969
3260.95	0.9711
3269.7	0.973
3278.46	0.973
3287.22	0.9708
3295.97	0.967
3304.73	0.967
3313.48	0.967
3322.24	0.967
3331	0.968
3339.75	0.968
3348.51	0.9665
3357.27	0.961
3366.02	0.9642
3374.78	0.965
3383.54	0.965
3392.29	0.9682
3401.05	0.9722
3409.81	0.976
3418.56	0.976
3427.32	0.978
3436.08	0.9805
3444.83	0.9833
3453.59	0.986
3462.35	0.989
3471.1	0.99
3479.86	0.991
3488.62	0.9933
3497.37	0.995
3506.13	0.997
3514.89	0.998
3523.64	1
3532.4	1.001
3541.16	1.001
3549.91	1.001
3558.67	1.001
3567.43	1.001
3576.18	1.001
3584.94	1.001
3593.7	1
3602.45	1.001
3611.21	1.001
3619.96	1.001
3628.72	1.001
3637.48	1.001
3646.23	1.001
3654.99	1.001
3663.75	1.001
3672.5	1.001
3681.26	0.9991
3690.02	0.997
3698.77	1.0015
3707.53	1.0055
3716.29	1.0055
3725.04	1.004
3733.8	1.002
3742.56	1.0005
3751.31	0.998
3760.07	0.997
3768.83	0.995
3777.58	0.9945
3786.34	0.994
3795.1	0.993
