Infrared Spectrum: 2-Bromo-3-chloro-1-propene
Formula: C 3 H 4 Br Cl
CAS: 16400-63-8
State: gas
Origin: EPA-IR VAPOR PHASE LIBRARY
1/CM	ABSORBANCE
549.8	0.012474
559.445	0.011234
569.09	0.010044
578.734	0.005544
588.379	0.004934
598.024	0.005284
607.669	0.009604
617.313	0.023374
626.958	0.034494
636.603	0.029214
646.248	0.006914
655.893	0.008514
665.537	0.009914
675.182	0.007184
684.827	0.003184
694.472	0.002594
704.116	0.002484
713.761	0.003944
723.406	0.006664
733.051	0.013724
742.695	0.031154
752.34	0.043744
761.985	0.034874
771.63	0.010184
781.275	0.003884
790.919	0.001894
800.564	0.001434
810.209	0.001544
819.854	0.002324
829.498	0.001764
839.143	0.001934
848.788	0.002154
858.433	0.002024
868.078	0.005304
877.722	0.013424
887.367	0.027544
897.012	0.042404
906.657	0.040504
916.301	0.031694
925.946	0.017334
935.591	0.009074
945.236	0.005604
954.88	0.003034
964.525	0.002484
974.17	0.001734
983.815	0.001704
993.46	0.001434
1003.1	0.0012165
1012.75	0.0011309
1022.39	0.001644
1032.04	0.0013179
1041.68	0.001964
1051.33	0.002734
1060.97	0.003174
1070.62	0.003664
1080.26	0.003864
1089.91	0.006444
1099.55	0.014894
1109.2	0.030104
1118.84	0.037254
1128.49	0.026484
1138.13	0.013784
1147.78	0.007044
1157.42	0.004014
1167.07	0.004534
1176.71	0.006014
1186.36	0.008414
1196	0.017064
1205.64	0.020974
1215.29	0.020014
1224.93	0.008514
1234.58	0.005354
1244.22	0.007224
1253.87	0.012594
1263.51	0.016844
1273.16	0.015544
1282.8	0.010114
1292.45	0.005794
1302.09	0.003694
1311.74	0.003184
1321.38	0.002964
1331.03	0.002724
1340.67	0.002794
1350.32	0.002914
1359.96	0.003794
1369.61	0.005784
1379.25	0.007634
1388.9	0.009354
1398.54	0.009944
1408.18	0.010794
1417.83	0.009914
1427.47	0.010494
1437.12	0.009454
1446.76	0.007514
1456.41	0.003824
1466.05	0.002014
1475.7	0.0010689
1485.34	0.0008831
1494.99	0.0009052
1504.63	0.0011196
1514.28	0.0009048
1523.92	0.0008896
1533.57	0.000835
1543.21	0.0011583
1552.86	0.001684
1562.5	0.002134
1572.15	0.002054
1581.79	0.002244
1591.44	0.003604
1601.08	0.007354
1610.73	0.014684
1620.37	0.023454
1630.01	0.027054
1639.66	0.023644
1649.3	0.014724
1658.95	0.007584
1668.59	0.003454
1678.24	0.001794
1687.88	0.0012359
1697.53	0.001484
1707.17	0.0010245
1716.82	0.0009563
1726.46	0.0009005
1736.11	0.0007268
1745.75	0.00092
1755.4	0.0008417
1765.04	0.0011416
1774.69	0.001414
1784.33	0.002094
1793.98	0.003294
1803.62	0.003864
1813.27	0.003854
1822.91	0.002464
1832.55	0.001604
1842.2	0.000959
1851.84	0.0008745
1861.49	0.0007023
1871.13	0.0008029
1880.78	0.0006025
1890.42	0.0006015
1900.07	0.0006496
1909.71	0.00073
1919.36	0.00049692
1929	0.0007084
1938.65	0.0007435
1948.29	0.00047564
1957.94	0.000544
1967.58	0.0006873
1977.23	0.0006069
1986.87	0.0005408
1996.52	0.0005381
2006.16	0.00050809
2015.81	0.0006574
2025.45	0.00051227
2035.1	0.0005433
2044.74	0.0006358
2054.38	0.0005497
2064.03	0.00050484
2073.67	0.000416781
2083.32	0.0005324
2092.96	0.0005474
2102.61	0.0005306
2112.25	0.0007276
2121.9	0.0005493
2131.54	0.00044529
2141.19	0.0003696
2150.83	0.000685
2160.48	0.0003849
2170.12	0.00050678
2179.77	0.0005332
2189.41	0.00046384
2199.06	0.0006209
2208.7	0.00047913
2218.35	0.00045556
2227.99	0.0006302
2237.64	0.0003335
2247.28	0.00047049
2256.92	0.0005771
2266.57	0.0003689
2276.21	0.000308
2285.86	0.0003323
2295.5	0.0005307
2305.15	0.0006822
2314.79	0.0007569
2324.44	0.0007181
2334.08	0.0009233
2343.73	0.0008627
2353.37	0.0008813
2363.02	0.0006708
2372.66	0.0003871
2382.31	0.00029
2391.95	0.00044067
2401.6	0.0005828
2411.24	0.0003541
2420.89	0.0005435
2430.53	0.0003745
2440.18	0.0003964
2449.82	0.0005143
2459.47	0.0004803
2469.11	0.0006175
2478.75	0.0003438
2488.4	0.0005194
2498.04	0.00044556
2507.69	0.000222
2517.33	0.000419184
2526.98	0.00049965
2536.62	0.0005315
2546.27	0.0003475
2555.91	0.0005548
2565.56	0.0005418
2575.2	0.0003342
2584.85	0.0003825
2594.49	0.000553
2604.14	0.000222
2613.78	0.00047684
2623.43	0.0005223
2633.07	0.00043744
2642.72	0.0005483
2652.36	0.0006078
2662.01	0.0005863
2671.65	0.00046411
2681.29	0.00047198
2690.94	0.0008329
2700.58	0.0006595
2710.23	0.0005949
2719.87	0.0005598
2729.52	0.0006712
2739.16	0.0005471
2748.81	0.0005825
2758.45	0.0005797
2768.1	0.0006804
2777.74	0.0003934
2787.39	0.00040955
2797.03	0.0005037
2806.68	0.000537
2816.32	0.0005463
2825.97	0.0009236
2835.61	0.0008137
2845.26	0.0013667
2854.9	0.0012646
2864.55	0.0013839
2874.19	0.0011118
2883.84	0.0007378
2893.48	0.0006135
2903.12	0.0006697
2912.77	0.0005203
2922.41	0.0009128
2932.06	0.001484
2941.7	0.002824
2951.35	0.006634
2960.99	0.008574
2970.64	0.007954
2980.28	0.004944
2989.93	0.003064
2999.57	0.002314
3009.22	0.002354
3018.86	0.002514
3028.51	0.001984
3038.15	0.001424
3047.8	0.001484
3057.44	0.0009755
3067.09	0.0008552
3076.73	0.0007836
3086.38	0.00041458
3096.02	0.0008662
3105.67	0.001514
3115.31	0.001424
3124.95	0.0011718
3134.6	0.0008159
3144.24	0.0003604
3153.89	0.00048694
3163.53	0.0003785
3173.18	0.00050866
3182.82	0.000228
3192.47	0.0006907
3202.11	0.000159
3211.76	0.0005357
3221.4	0.00031
3231.05	0.00043442
3240.69	0.0008529
3250.34	0.0009843
3259.98	0.0005242
3269.63	0.000319
3279.27	0.0005355
3288.92	0.000294
3298.56	0.0005723
3308.21	0.0005895
3317.85	0.0006451
3327.49	0.0006811
3337.14	0.0004365
3346.78	0.0003901
3356.43	0.00041136
3366.07	0.0006349
3375.72	0.0003829
3385.36	0.0004789
3395.01	0.00043287
3404.65	0.00015
3414.3	0.0003907
3423.94	0.0007769
3433.59	0.00050154
3443.23	0.000188
3452.88	0.0003832
3462.52	0.0006961
3472.17	0.0006136
3481.81	0.0004752
3491.46	0.0005324
3501.1	0.00049944
3510.75	0.0005768
3520.39	0.0005206
3530.04	0.00050765
3539.68	0.0006604
3549.32	0.00049247
3558.97	0.00042721
3568.61	0.0006108
3578.26	0.000416743
3587.9	0.0003282
3597.55	0.0008213
3607.19	0.00044503
3616.84	0.0006213
3626.48	0.0005303
3636.13	0.0007669
3645.77	0.0004454
3655.42	0.0006455
3665.06	0.0007609
3674.71	0.000269
3684.35	0.00048162
3694	0.000417421
3703.64	0.0005485
3713.29	0.0003339
3722.93	0.000308
3732.58	0.0003512
3742.22	2.7e-05
3751.86	0.000423316
3761.51	0.0003654
3771.15	0.0005773
3780.8	0.00025
3790.44	0.00050559
3800.09	0.00046965
3809.73	0.0003481
3819.38	0.0005653
3829.02	0.000159
3838.67	0.0006174
3848.31	0.00044377
3857.96	0.000285
3867.6	0.00045021
3877.25	0.0007204
3886.89	0.0003891
3896.54	0.000413688
3906.18	0.0008045
3915.83	0.0010725
3925.47	0.0006768
3935.12	0.0004619
3944.76	0.0007512
3954.41	0.0005885
3964.05	0.0003464
3973.69	0.0006181
3983.34	0.0007396
3992.98	0.000572
