Infrared Spectrum: OXIRANE
Formula: C2 H4 O
CAS: 75-21-8
State: GAS (50 mmHg, N2 ADDED, TOTAL PRESSURE 600 mmHg)
Class: COBLENTZ
Instrument: DOW KBr FOREPRISM-GRATING
Instrument parameters: GRATING CHANGED AT 5.0, 7.5, 15.0 MICRON
Sampling: TRANSMISSION
Path length: 5 CM
Resolution: 2
Origin: DOW CHEMICAL COMPANY
1/CM	TRANSMITTANCE
454.063	0.952
462.501	0.955
470.938	0.956
479.376	0.956
487.813	0.956
496.251	0.955
504.688	0.953
513.126	0.95
521.563	0.95
530.001	0.952
538.438	0.955
546.876	0.953
555.313	0.955
563.751	0.959
572.188	0.965
580.626	0.962
589.063	0.966
597.501	0.966
605.938	0.969
614.376	0.968
622.813	0.971
631.251	0.975
639.688	0.975
648.126	0.978
656.563	0.972
665.001	0.972
673.438	0.975
681.876	0.968
690.313	0.968
698.751	0.971
707.189	0.968
715.626	0.971
724.064	0.971
732.501	0.974
740.939	0.971
749.376	0.968
757.814	0.963
766.251	0.956
774.689	0.955
783.126	0.933
791.564	0.906
800.001	0.868
808.439	0.8161
816.876	0.753
825.314	0.6678
833.751	0.549
842.189	0.311
850.626	0.259
859.064	0.215
867.501	0.232
875.939	0.2421
884.376	0.2299
892.814	0.317
901.251	0.356
909.689	0.455
918.126	0.634
926.564	0.815
935.002	0.919
943.439	0.959
951.877	0.978
960.314	0.982
968.752	0.987
977.189	0.982
985.627	0.985
994.064	0.984
1002.5	0.981
1010.94	0.985
1019.38	0.994
1027.81	1.01
1036.25	1.005
1044.69	1.002
1053.13	1.002
1061.56	0.997
1070	0.995
1078.44	0.989
1086.88	0.985
1095.31	0.982
1103.75	0.976
1112.19	0.966
1120.63	0.955
1129.06	0.937
1137.5	0.922
1145.94	0.838
1154.38	0.898
1162.81	0.958
1171.25	0.926
1179.69	0.942
1188.13	0.961
1196.56	0.971
1205	0.976
1213.44	0.976
1221.88	0.963
1230.31	0.919
1238.75	0.852
1247.19	0.774
1255.63	0.756
1264.06	0.724
1272.5	0.7571
1280.94	0.699
1289.38	0.735
1297.81	0.757
1306.25	0.842
1314.69	0.916
1323.13	0.949
1331.56	0.965
1340	0.969
1348.44	0.975
1356.88	0.992
1365.31	0.988
1373.75	0.975
1382.19	0.969
1390.63	0.966
1399.06	0.968
1407.5	0.969
1415.94	0.968
1424.38	0.963
1432.82	0.959
1441.25	0.953
1449.69	0.95
1458.13	0.946
1466.57	0.942
1475	0.913
1483.44	0.936
1491.88	0.933
1500.32	0.932
1508.75	0.916
1517.19	0.933
1525.63	0.926
1534.07	0.94
1542.5	0.93
1550.94	0.952
1559.38	0.933
1567.82	0.953
1576.25	0.956
1584.69	0.952
1593.13	0.946
1601.57	0.94
1610	0.935
1618.44	0.92
1626.88	0.919
1635.32	0.916
1643.75	0.8571
1652.19	0.913
1660.63	0.933
1669.07	0.94
1677.5	0.943
1685.94	0.937
1694.38	0.969
1702.82	0.953
1711.25	0.965
1719.69	0.949
1728.13	0.968
1736.57	0.952
1745	0.958
1753.44	0.959
1761.88	0.959
1770.32	0.961
1778.75	0.961
1787.19	0.962
1795.63	0.961
1804.07	0.966
1812.5	0.962
1820.94	0.962
1829.38	0.958
1837.82	0.959
1846.25	0.959
1854.69	0.959
1863.13	0.959
1871.57	0.961
1880	0.961
1888.44	0.961
1896.88	0.961
1905.32	0.961
1913.75	0.959
1922.19	0.958
1930.63	0.95
1939.07	0.956
1947.5	0.956
1955.94	0.953
1964.38	0.956
1972.82	0.955
1981.25	0.955
1989.69	0.952
1998.13	0.948
2006.57	0.945
2015	0.945
2023.44	0.9495
2031.88	0.9591
2040.32	0.952
2048.75	0.9549
2057.19	0.958
2065.63	0.9609
2074.07	0.962
2082.5	0.961
2090.94	0.9599
2099.38	0.9649
2107.82	0.9554
2116.25	0.9589
2124.69	0.961
2133.13	0.963
2141.57	0.965
2150	0.963
2158.44	0.962
2166.88	0.9629
2175.32	0.9638
2183.75	0.9678
2192.19	0.969
2200.63	0.9681
2209.07	0.968
2217.5	0.9651
2225.94	0.9626
2234.38	0.956
2242.82	0.9512
2251.25	0.9481
2259.69	0.946
2268.13	0.9491
2276.57	0.946
2285	0.9489
2293.44	0.9524
2301.88	0.9577
2310.32	0.962
2318.75	0.9659
2327.19	0.9683
2335.63	0.971
2344.07	0.974
2352.5	0.9777
2360.94	0.978
2369.38	0.979
2377.82	0.9796
2386.25	0.981
2394.69	0.981
2403.13	0.981
2411.57	0.981
2420	0.981
2428.44	0.981
2436.88	0.981
2445.32	0.981
2453.75	0.981
2462.19	0.981
2470.63	0.981
2479.07	0.9795
2487.5	0.981
2495.94	0.982
2504.38	0.982
2512.82	0.982
2521.25	0.982
2529.69	0.982
2538.13	0.982
2546.57	0.981
2555	0.981
2563.44	0.981
2571.88	0.979
2580.32	0.978
2588.75	0.976
2597.19	0.974
2605.63	0.972
2614.07	0.9706
2622.51	0.971
2630.94	0.972
2639.38	0.9734
2647.82	0.975
2656.26	0.976
2664.69	0.979
2673.13	0.981
2681.57	0.981
2690.01	0.981
2698.44	0.981
2706.88	0.979
2715.32	0.979
2723.76	0.978
2732.19	0.976
2740.63	0.976
2749.07	0.976
2757.51	0.976
2765.94	0.975
2774.38	0.9744
2782.82	0.974
2791.26	0.974
2799.69	0.972
2808.13	0.971
2816.57	0.971
2825.01	0.9732
2833.44	0.975
2841.88	0.9772
2850.32	0.979
2858.76	0.9784
2867.19	0.9738
2875.63	0.9668
2884.07	0.9158
2892.51	0.8725
2900.94	0.7956
2909.38	0.7153
2917.82	0.6938
2926.26	0.7484
2934.69	0.7196
2943.13	0.6613
2951.57	0.619
2960.01	0.6306
2968.44	0.6639
2976.88	0.5935
2985.32	0.5448
2993.76	0.515
3002.19	0.5594
3010.63	0.288
3019.07	0.4739
3027.51	0.3325
3035.94	0.337
3044.38	0.4085
3052.82	0.6691
3061.26	0.4281
3069.69	0.6938
3078.13	0.728
3086.57	0.5823
3095.01	0.5415
3103.44	0.6027
3111.88	0.7181
3120.32	0.8554
3128.76	0.9304
3137.19	0.9717
3145.63	0.9799
3154.07	0.9869
3162.51	0.991
3170.94	0.991
3179.38	0.991
3187.82	0.992
3196.26	0.992
3204.69	0.992
3213.13	0.992
3221.57	0.991
3230.01	0.989
3238.44	0.9881
3246.88	0.9884
3255.32	0.989
3263.76	0.989
3272.19	0.991
3280.63	0.991
3289.07	0.991
3297.51	0.992
3305.94	0.992
3314.38	0.992
3322.82	0.992
3331.26	0.995
3339.69	0.995
3348.13	0.995
3356.57	0.995
3365.01	0.997
3373.44	0.997
3381.88	0.997
3390.32	0.997
3398.76	0.9973
3407.19	0.998
3415.63	0.997
3424.07	0.997
3432.51	0.998
3440.94	0.998
3449.38	0.998
3457.82	0.998
3466.26	0.998
3474.69	0.998
3483.13	1
3491.57	1.001
3500.01	1.001
3508.44	1.001
3516.88	1.001
3525.32	1.001
3533.76	1
3542.19	1
3550.63	1
3559.07	1
3567.51	1
3575.94	1
3584.38	1
3592.82	1
3601.26	0.998
3609.69	0.995
3618.13	0.995
3626.57	0.998
3635.01	0.9943
3643.44	0.997
3651.88	0.9966
3660.32	0.991
3668.76	0.9964
3677.19	0.989
3685.63	0.989
3694.07	0.9913
3702.51	0.9906
3710.94	0.9877
3719.38	0.988
3727.82	0.9856
3736.26	0.987
3744.69	0.987
3753.13	0.983
3761.57	0.989
3770.01	0.988
3778.44	0.9857
3786.88	0.979
3795.32	0.978
