Infrared Spectrum: N-BUTYL BROMIDE
Formula: C4 H9 Br
CAS: 109-65-9
State: LIQUID
Class: COBLENTZ
Instrument: Not specified, most likely a prism, grating, or hybrid spectrometer.
Sampling: TRANSMISSION
Path length: 0.0036 CM
Resolution: 4
Origin: CONTINENTAL OIL CO. (HAROLD F. SMITH)
MICROMETERS	TRANSMITTANCE
12.012	0.952
12.0491	0.958
12.0863	0.959
12.1234	0.958
12.1605	0.969
12.1977	0.969
12.2348	0.97
12.272	0.969
12.3091	0.97
12.3462	0.959
12.3834	0.952
12.4205	0.941
12.4576	0.925
12.4948	0.928
12.5319	0.877
12.569	0.799
12.6062	0.744
12.6433	0.726
12.6804	0.744
12.7176	0.775
12.7547	0.8
12.7919	0.816
12.829	0.802
12.8661	0.761
12.9033	0.727
12.9404	0.724
12.9775	0.744
13.0147	0.782
13.0518	0.812
13.0889	0.812
13.1261	0.812
13.1632	0.797
13.2003	0.783
13.2375	0.752
13.2746	0.712
13.3118	0.653
13.3489	0.59
13.386	0.51
13.4232	0.397
13.4603	0.293
13.4974	0.225
13.5346	0.146
13.5717	0.128
13.6088	0.146
13.646	0.205
13.6831	0.261
13.7203	0.338
13.7574	0.401
13.7945	0.465
13.8317	0.539
13.8688	0.61
13.9059	0.69
13.9431	0.723
13.9802	0.761
14.0173	0.791
14.0545	0.809
14.0916	0.82
14.1287	0.836
14.1659	0.85
14.203	0.85
14.2402	0.85
14.2773	0.862
14.3144	0.87
14.3516	0.879
14.3887	0.882
14.4258	0.877
14.463	0.88
14.5001	0.879
14.5372	0.884
14.5744	0.882
14.6115	0.874
14.6487	0.87
14.6858	0.867
14.7229	0.87
14.7601	0.859
14.7972	0.851
14.8343	0.842
14.8715	0.84
14.9086	0.836
14.9457	0.833
14.9829	0.823
15.02	0.814
15.0571	0.802
15.0943	0.755
15.1314	0.731
15.1686	0.709
15.2057	0.681
15.2428	0.633
15.28	0.593
15.3171	0.53
15.3542	0.471
15.3914	0.415
15.4285	0.321
15.4656	0.256
15.5028	0.196
15.5399	0.139
15.577	0.109
15.6142	0.102
15.6513	0.106
15.6885	0.128
15.7256	0.154
15.7627	0.2
15.7999	0.259
15.837	0.338
15.8741	0.404
15.9113	0.466
15.9484	0.536
15.9855	0.571
16.0227	0.619
16.0598	0.669
16.097	0.697
16.1341	0.718
16.1712	0.741
16.2084	0.765
16.2455	0.778
16.2826	0.789
16.3198	0.8
16.3569	0.812
16.394	0.819
16.4312	0.823
16.4683	0.82
16.5054	0.822
16.5426	0.819
16.5797	0.823
16.6169	0.826
16.654	0.823
16.6911	0.828
16.7283	0.829
16.7654	0.825
16.8025	0.829
16.8397	0.822
16.8768	0.806
16.9139	0.809
16.9511	0.809
16.9882	0.797
17.0254	0.78
17.0625	0.769
17.0996	0.757
17.1368	0.74
17.1739	0.72
17.211	0.693
17.2482	0.664
17.2853	0.639
17.3224	0.613
17.3596	0.565
17.3967	0.53
17.4338	0.476
17.471	0.431
17.5081	0.372
17.5453	0.323
17.5824	0.289
17.6195	0.244
17.6567	0.199
17.6938	0.183
17.7309	0.17
17.7681	0.143
17.8052	0.151
17.8423	0.148
17.8795	0.159
17.9166	0.165
17.9537	0.182
17.9909	0.214
18.028	0.244
18.0652	0.292
18.1023	0.352
18.1394	0.414
18.1766	0.454
18.2137	0.5
18.2508	0.54
18.288	0.581
18.3251	0.613
18.3622	0.641
18.3994	0.673
18.4365	0.69
18.4737	0.704
18.5108	0.729
18.5479	0.735
18.5851	0.751
18.6222	0.751
18.6593	0.765
18.6965	0.769
18.7336	0.782
18.7707	0.789
18.8079	0.802
18.845	0.802
18.8821	0.811
18.9193	0.823
18.9564	0.831
18.9936	0.833
19.0307	0.84
19.0678	0.842
19.105	0.842
19.1421	0.851
19.1792	0.843
19.2164	0.851
19.2535	0.854
19.2906	0.856
19.3278	0.859
19.3649	0.865
19.4021	0.871
19.4392	0.874
19.4763	0.868
19.5135	0.874
19.5506	0.877
19.5877	0.88
19.6249	0.884
19.662	0.882
19.6991	0.879
19.7363	0.882
19.7734	0.884
19.8105	0.888
19.8477	0.885
19.8848	0.882
19.922	0.882
19.9591	0.893
19.9962	0.891
20.0334	0.884
20.0705	0.887
20.1076	0.896
20.1448	0.896
20.1819	0.891
20.219	0.89
20.2562	0.896
20.2933	0.893
20.3304	0.891
20.3676	0.89
20.4047	0.891
20.4419	0.89
20.479	0.885
20.5161	0.891
20.5533	0.893
20.5904	0.893
20.6275	0.896
20.6647	0.894
20.7018	0.893
20.7389	0.89
20.7761	0.891
20.8132	0.891
20.8504	0.893
20.8875	0.888
20.9246	0.894
20.9618	0.885
20.9989	0.891
21.036	0.888
21.0732	0.884
21.1103	0.884
21.1474	0.882
21.1846	0.879
21.2217	0.873
21.2588	0.877
21.296	0.873
21.3331	0.863
21.3703	0.85
21.4074	0.85
21.4445	0.834
21.4817	0.826
21.5188	0.806
21.5559	0.782
21.5931	0.76
21.6302	0.74
21.6673	0.712
21.7045	0.707
21.7416	0.701
21.7788	0.7
21.8159	0.712
21.853	0.724
21.8902	0.735
21.9273	0.74
21.9644	0.769
22.0016	0.8
22.0387	0.816
22.0758	0.817
22.113	0.823
22.1501	0.831
22.1872	0.84
22.2244	0.845
22.2615	0.842
22.2987	0.856
22.3358	0.856
22.3729	0.854
22.4101	0.87
22.4472	0.868
22.4843	0.873
22.5215	0.873
22.5586	0.88
22.5957	0.873
22.6329	0.879
22.67	0.885
22.7071	0.891
22.7443	0.894
22.7814	0.899
22.8186	0.902
22.8557	0.908
22.8928	0.902
22.93	0.899
22.9671	0.902
23.0042	0.901
23.0414	0.902
23.0785	0.901
23.1156	0.896
23.1528	0.901
23.1899	0.901
23.2271	0.899
23.2642	0.901
23.3013	0.897
23.3385	0.901
23.3756	0.902
23.4127	0.902
23.4499	0.897
23.487	0.891
23.5241	0.884
23.5613	0.885
23.5984	0.882
23.6355	0.877
23.6727	0.877
23.7098	0.877
23.747	0.873
23.7841	0.865
23.8212	0.85
23.8584	0.846
23.8955	0.842
23.9326	0.839
23.9698	0.851
24.0069	0.857
24.044	0.863
24.0812	0.857
24.1183	0.854
24.1554	0.853
24.1926	0.85
24.2297	0.851
24.2669	0.842
24.304	0.839
24.3411	0.837
24.3783	0.829
24.4154	0.828
24.4525	0.826
24.4897	0.822
24.5268	0.816
24.5639	0.811
24.6011	0.803
24.6382	0.802
24.6754	0.803
24.7125	0.802
24.7496	0.794
24.7868	0.791
24.8239	0.785
24.861	0.791
24.8982	0.769
24.9353	0.763
24.9724	0.751
25.0096	0.743
25.0467	0.737
25.0838	0.734
25.121	0.729
25.1581	0.723
25.1953	0.718
25.2324	0.718
25.2695	0.724
25.3067	0.726
25.3438	0.721
25.3809	0.723
25.4181	0.72
25.4552	0.721
25.4923	0.729
25.5295	0.724
25.5666	0.718
25.6038	0.714
25.6409	0.717
25.678	0.712
25.7152	0.71
25.7523	0.709
25.7894	0.707
25.8266	0.701
25.8637	0.695
25.9008	0.693
25.938	0.692
25.9751	0.692
