Infrared Spectrum: Butane, 1-bromo-
Formula: C 4 H 9 Br
CAS: 109-65-9
State: gas
Origin: Sadtler Research Labs Under US-EPA Contract
1/CM	ABSORBANCE
450	0.0151975
462	0
474	0.00847177
486	0.00614365
498	0.00135807
510	0.00691969
522	0.00543228
534	0.00530294
546	0.0172022
558	0.0366032
570	0.0647993
582	0.0564569
594	0.012546
606	0.00982984
618	0.0122873
630	0.0220525
642	0.0521887
654	0.0762459
666	0.044687
678	0.0122873
690	0.00860111
702	0.00717837
714	0.0097005
726	0.0148094
738	0.044299
750	0.0539348
762	0.0263854
774	0.0208237
786	0.0177843
798	0.0114466
810	0.00898913
822	0.00536761
834	0.00426822
846	0.00698436
858	0.0152621
870	0.0261914
882	0.019789
894	0.0124813
906	0.0142921
918	0.0168789
930	0.0118346
942	0.0077604
954	0.00666101
966	0.0084071
978	0.0114466
990	0.0133867
1002	0.0144214
1014	0.0105412
1026	0.00562629
1038	0.00866578
1050	0.0151328
1062	0.0156501
1074	0.00950649
1086	0.00666101
1098	0.0108646
1110	0.00931248
1122	0.0051736
1134	0.00433289
1146	0.00562629
1158	0.00795441
1170	0.0102179
1182	0.0144214
1194	0.0224405
1206	0.0600784
1218	0.143567
1230	0.105735
1242	0.045657
1254	0.101338
1266	0.181076
1278	0.146995
1290	0.0784447
1302	0.0621479
1314	0.0294895
1326	0.0173316
1338	0.0200477
1350	0.0250273
1362	0.025674
1374	0.026644
1386	0.0366032
1398	0.0302656
1410	0.0181076
1422	0.0261914
1434	0.058397
1446	0.0896973
1458	0.101403
1470	0.0917021
1482	0.0579443
1494	0.0280021
1506	0.0140334
1518	0.00717837
1530	0.00439756
1542	0.00491492
1554	0.00381553
1566	0.00342751
1578	0.00278081
1590	0.00245746
1602	0.00200477
1614	0.00200477
1626	0.00232812
1638	0.00142274
1650	0.00226345
1662	0.0012934
1674	0.0019401
1686	0.00122873
1698	0.00181076
1710	0.00116406
1722	0.00103472
1734	0.00142274
1746	0.00109939
1758	0.00155208
1770	0.00135807
1782	0.00058203
1794	0.00051736
1806	0.00051736
1818	0.00019401
1830	0.00045269
1842	0.00012934
1854	0.00058203
1866	0.00051736
1878	0.00038802
1890	0.00019401
1902	0.00045269
1914	0.00051736
1926	0.00051736
1938	0.00051736
1950	0.00051736
1962	0.00058203
1974	0.00019401
1986	0.0006467
1998	0.00058203
2010	0.00045269
2022	0.00077604
2034	0.00103472
2046	0.00135807
2058	0.0012934
2070	0.00109939
2082	0.00077604
2094	0.00071137
2106	0.00084071
2118	0.00097005
2130	0.00103472
2142	0.00097005
2154	0.00116406
2166	0.00109939
2178	0.00116406
2190	0.00148741
2202	0.00155208
2214	0.00148741
2226	0.00168142
2238	0.00155208
2250	0.00155208
2262	0.00142274
2274	0.00090538
2286	0.00122873
2298	0.00155208
2310	0.00219878
2322	0.00232812
2334	0.00245746
2346	0.00168142
2358	0.00271614
2370	0.00232812
2382	0.00213411
2394	0.00181076
2406	0.00148741
2418	0.00142274
2430	0.00200477
2442	0.00181076
2454	0.0012934
2466	0.00122873
2478	0.0012934
2490	0.00135807
2502	0.00097005
2514	0.00071137
2526	0.00116406
2538	0.00084071
2550	0.00103472
2562	0.00155208
2574	0.00155208
2586	0.0012934
2598	0.0012934
2610	0.00161675
2622	0.00232812
2634	0.00316883
2646	0.00433289
2658	0.00575563
2670	0.00594964
2682	0.00523827
2694	0.00523827
2706	0.00536761
2718	0.00549695
2730	0.00679035
2742	0.00937715
2754	0.0104119
2766	0.00847177
2778	0.00866578
2790	0.0108646
2802	0.013516
2814	0.0173316
2826	0.0273554
2838	0.051542
2850	0.0827129
2862	0.116729
2874	0.177131
2886	0.262172
2898	0.245811
2910	0.199636
2922	0.220783
2934	0.312291
2946	0.436264
2958	0.504361
2970	0.6467
2982	0.545233
2994	0.234817
3006	0.120674
3018	0.0827129
3030	0.0560689
3042	0.0320763
3054	0.0203711
3066	0.0155208
3078	0.013322
3090	0.0112526
3102	0.00995918
3114	0.0090538
3126	0.00782507
3138	0.00704903
3150	0.00685502
3162	0.00633766
3174	0.00614365
3186	0.00653167
3198	0.00569096
3210	0.00465624
3222	0.00355685
3234	0.00284548
3246	0.00232812
3258	0.00219878
3270	0.00148741
3282	0.00122873
3294	0.00122873
3306	0.00084071
3318	0.00142274
3330	0.00097005
3342	0.00084071
3354	0.00122873
3366	0.00097005
3378	0.00168142
3390	0.00187543
3402	0.00148741
3414	0.00135807
3426	0.00174609
3438	0.00142274
3450	0.00135807
3462	0.00122873
3474	0.00155208
3486	0.00161675
3498	0.00155208
3510	0.00135807
3522	0.00142274
3534	0.00155208
3546	0.00239279
3558	0.00245746
3570	0.00168142
3582	0.00155208
3594	0.00187543
3606	0.00181076
3618	0.00200477
3630	0.00226345
3642	0.0025868
3654	0.00297482
3666	0.00187543
3678	0.00252213
3690	0.00297482
3702	0.00278081
3714	0.00174609
3726	0.00278081
3738	0.00161675
3750	0.0019401
3762	0.00245746
3774	0.00200477
3786	0.00200477
3798	0.00336284
3810	0.00174609
3822	0.00271614
3834	0.00349218
3846	0.00297482
3858	0.00252213
3870	0.00206944
3882	0.00206944
3894	0.00271614
3906	0.00291015
3918	0.00226345
3930	0.00310416
3942	0.00284548
3954	0.00349218
3966	0.00252213
