Infrared Spectrum: PENTANE, 3-METHYL-
Formula: C6 H14
CAS: 96-14-0
State: SOLUTION (10% IN CCl4 FOR 3800-1300, 10% IN CS2 FOR 1300-620, AND 10% CCl4 FOR 620-240 CM^-^1) VERSUS SOLVENT
Class: COBLENTZ III
Instrument: PERKIN-ELMER 521 (GRATING)
Instrument parameters: FILTERS AT 3150, 2500, 2000, 1150, 700, 410; GRATING CHANGES AT 2000, 630 CM^-^1
Sampling: TRANSMISSION
Path length: 0.0120, 0.011,AND 0.010 CM (CsBr CELL)
Resolution: 4
Origin: DOW CORNING CORP.
1/CM	TRANSMITTANCE
243.404	0.821
252.34	0.842
261.276	0.85
270.213	0.87
279.149	0.88
288.085	0.889
297.021	0.892
305.957	0.899
314.893	0.904
323.83	0.908
332.766	0.906
341.702	0.902
350.638	0.904
359.574	0.896
368.511	0.897
377.447	0.883
386.383	0.878
395.319	0.873
404.255	0.88
413.192	0.883
422.128	0.88
431.064	0.88
440	0.88
448.936	0.88
457.872	0.875
466.809	0.875
475.745	0.875
484.681	0.876
493.617	0.873
502.553	0.871
511.49	0.868
520.426	0.866
529.362	0.863
538.298	0.87
547.234	0.861
556.171	0.868
565.107	0.87
574.043	0.868
582.979	0.868
591.915	0.868
600.851	0.864
609.788	0.868
618.724	0.871
627.66	0.868
636.596	0.871
645.532	0.878
654.469	0.87
663.405	0.8471
672.341	0.83
681.277	0.873
690.213	0.878
699.15	0.883
708.086	0.882
717.022	0.873
725.958	0.863
734.894	0.842
743.83	0.811
752.767	0.835
761.703	0.7551
770.639	0.734
779.575	0.7791
788.511	0.875
797.448	0.866
806.384	0.811
815.32	0.778
824.256	0.868
833.192	0.896
842.128	0.908
851.065	0.883
860.001	0.864
868.937	0.84
877.873	0.844
886.809	0.876
895.746	0.876
904.682	0.875
913.618	0.875
922.554	0.868
931.49	0.847
940.427	0.7921
949.363	0.582
958.299	0.701
967.235	0.762
976.171	0.686
985.107	0.613
994.044	0.7689
1002.98	0.785
1011.92	0.766
1020.85	0.826
1029.79	0.823
1038.72	0.76
1047.66	0.842
1056.6	0.866
1065.53	0.871
1074.47	0.875
1083.41	0.878
1092.34	0.876
1101.28	0.871
1110.21	0.861
1119.15	0.812
1128.09	0.812
1137.02	0.781
1145.96	0.764
1154.9	0.793
1163.83	0.823
1172.77	0.837
1181.7	0.854
1190.64	0.864
1199.58	0.88
1208.51	0.868
1217.45	0.857
1226.38	0.852
1235.32	0.833
1244.26	0.788
1253.19	0.833
1262.13	0.811
1271.07	0.785
1280	0.785
1288.94	0.771
1297.87	0.76
1306.81	0.857
1315.75	0.85
1324.68	0.831
1333.62	0.823
1342.55	0.788
1351.49	0.748
1360.43	0.719
1369.36	0.4829
1378.3	0.194
1387.24	0.6289
1396.17	0.762
1405.11	0.767
1414.04	0.752
1422.98	0.724
1431.92	0.653
1440.85	0.4971
1449.79	0.259
1458.73	0.043
1467.66	0.1758
1476.6	0.538
1485.53	0.694
1494.47	0.772
1503.41	0.823
1512.34	0.85
1521.28	0.861
1530.21	0.87
1539.15	0.864
1548.09	0.864
1557.02	0.871
1565.96	0.868
1574.9	0.868
1583.83	0.871
1592.77	0.88
1601.7	0.876
1610.64	0.878
1619.58	0.873
1628.51	0.868
1637.45	0.868
1646.39	0.864
1655.32	0.863
1664.26	0.864
1673.19	0.87
1682.13	0.873
1691.07	0.88
1700	0.883
1708.94	0.885
1717.87	0.885
1726.81	0.887
1735.75	0.887
1744.68	0.889
1753.62	0.889
1762.56	0.887
1771.49	0.889
1780.43	0.89
1789.36	0.892
1798.3	0.892
1807.24	0.892
1816.17	0.892
1825.11	0.89
1834.05	0.892
1842.98	0.892
1851.92	0.889
1860.85	0.894
1869.79	0.892
1878.73	0.897
1887.66	0.892
1896.6	0.896
1905.53	0.892
1914.47	0.892
1923.41	0.887
1932.34	0.892
1941.28	0.896
1950.22	0.892
1959.15	0.894
1968.09	0.894
1977.02	0.892
1985.96	0.89
1994.9	0.899
2003.83	0.9
2012.77	0.902
2021.71	0.9015
2030.64	0.901
2039.58	0.899
2048.51	0.8991
2057.45	0.899
2066.39	0.899
2075.32	0.8981
2084.26	0.894
2093.19	0.8929
2102.13	0.894
2111.07	0.89
2120	0.8899
2128.94	0.889
2137.88	0.889
2146.81	0.889
2155.75	0.8872
2164.68	0.889
2173.62	0.889
2182.56	0.883
2191.49	0.885
2200.43	0.89
2209.37	0.889
2218.3	0.889
2227.24	0.8855
2236.17	0.885
2245.11	0.885
2254.05	0.883
2262.98	0.8867
2271.92	0.8843
2280.85	0.8828
2289.79	0.885
2298.73	0.883
2307.66	0.8773
2316.6	0.8702
2325.54	0.864
2334.47	0.8676
2343.41	0.87
2352.34	0.87
2361.28	0.8709
2370.22	0.871
2379.15	0.871
2388.09	0.8702
2397.02	0.8703
2405.96	0.8685
2414.9	0.8637
2423.83	0.8655
2432.77	0.8685
2441.71	0.8725
2450.64	0.8765
2459.58	0.882
2468.51	0.882
2477.45	0.8815
2486.39	0.878
2495.32	0.8753
2504.26	0.8726
2513.2	0.8686
2522.13	0.87
2531.07	0.8666
2540	0.8626
2548.94	0.8576
2557.88	0.8516
2566.81	0.8429
2575.75	0.8378
2584.68	0.824
2593.62	0.795
2602.56	0.809
2611.49	0.812
2620.43	0.812
2629.37	0.8181
2638.3	0.8178
2647.24	0.812
2656.17	0.812
2665.11	0.812
2674.05	0.8098
2682.98	0.8
2691.92	0.802
2700.86	0.7895
2709.79	0.776
2718.73	0.7665
2727.66	0.7532
2736.6	0.722
2745.54	0.7743
2754.47	0.783
2763.41	0.781
2772.34	0.7669
2781.28	0.7511
2790.22	0.7233
2799.15	0.6819
2808.09	0.6451
2817.03	0.5965
2825.96	0.5255
2834.9	0.4643
2843.83	0.3464
2852.77	0.0554
2861.71	0.0219
2870.64	0.0014
2879.58	0.0012
2888.52	0.0565
2897.45	0.0219
2906.39	0
2915.32	0
2924.26	0
2933.2	0
2942.13	0
2951.07	0
2960	0
2968.94	0
2977.88	0.0313
2986.81	0.1516
2995.75	0.3344
3004.69	0.5205
3013.62	0.5788
3022.56	0.6415
3031.49	0.6906
3040.43	0.7098
3049.37	0.7365
3058.3	0.7568
3067.24	0.7714
3076.18	0.7808
3085.11	0.7924
3094.05	0.7968
3102.98	0.8086
3111.92	0.8175
3120.86	0.8234
3129.79	0.828
3138.73	0.8215
3147.66	0.8093
3156.6	0.8033
3165.54	0.802
3174.47	0.809
3183.41	0.8174
3192.35	0.831
3201.28	0.8413
3210.22	0.8507
3219.15	0.8584
3228.09	0.8633
3237.03	0.866
3245.96	0.871
3254.9	0.871
3263.84	0.873
3272.77	0.876
3281.71	0.8739
3290.64	0.876
3299.58	0.876
3308.52	0.876
3317.45	0.871
3326.39	0.875
3335.32	0.8725
3344.26	0.871
3353.2	0.8745
3362.13	0.875
3371.07	0.876
3380.01	0.876
3388.94	0.878
3397.88	0.878
3406.81	0.878
3415.75	0.878
3424.69	0.8804
3433.62	0.882
3442.56	0.885
3451.49	0.8864
3460.43	0.889
3469.37	0.889
3478.3	0.889
3487.24	0.889
3496.18	0.8873
3505.11	0.89
3514.05	0.89
3522.98	0.8913
3531.92	0.8937
3540.86	0.89
3549.79	0.892
3558.73	0.894
3567.67	0.8961
3576.6	0.9009
3585.54	0.8988
3594.47	0.894
3603.41	0.89
3612.35	0.8912
3621.28	0.89
3630.22	0.889
3639.15	0.887
3648.09	0.8838
3657.03	0.882
3665.96	0.882
3674.9	0.8819
3683.84	0.8826
3692.77	0.882
3701.71	0.8852
3710.64	0.887
3719.58	0.8872
3728.52	0.892
3737.45	0.8895
3746.39	0.889
3755.33	0.889
3764.26	0.889
3773.2	0.889
3782.13	0.889
3791.07	0.891
