Infrared Spectrum: Pentane, 3-methyl-
Formula: C 6 H 14
CAS: 96-14-0
State: gas
Origin: Sadtler Research Labs Under US-EPA Contract
1/CM	ABSORBANCE
450	0.000855504
462	0.0023764
474	0.00304179
486	0.000855504
498	0.00104562
510	0.00256651
522	0.00456269
534	0.00275662
546	0.000380224
558	0.0015209
570	0.00104562
582	0.00180606
594	0.00199618
606	0.00199618
618	0.00199618
630	0.00171101
642	0.00114067
654	0.00199618
666	0.0015209
678	0.00199618
690	0.00199618
702	0.00199618
714	0.0023764
726	0.00294674
738	0.00437258
750	0.00750942
762	0.00998088
774	0.0119771
786	0.0110265
798	0.00617864
810	0.00513302
822	0.00522808
834	0.00256651
846	0.00256651
858	0.00304179
870	0.00342202
882	0.00456269
894	0.00256651
906	0.00190112
918	0.0023764
930	0.00437258
942	0.00931549
954	0.0146386
966	0.0177755
978	0.0235739
990	0.0251898
1002	0.0199618
1014	0.0131177
1026	0.00979077
1038	0.0086501
1050	0.00703414
1062	0.00408741
1074	0.00266157
1086	0.00218629
1098	0.00256651
1110	0.00408741
1122	0.00703414
1134	0.0103611
1146	0.0117869
1158	0.0107413
1170	0.00617864
1182	0.00332696
1194	0.00247146
1206	0.00180606
1218	0.0023764
1230	0.00342202
1242	0.00703414
1254	0.0086501
1266	0.0086501
1278	0.00922043
1290	0.0110265
1302	0.0123573
1314	0.0124523
1326	0.00941054
1338	0.0103611
1350	0.0147337
1362	0.0304179
1374	0.0658738
1386	0.088212
1398	0.055988
1410	0.0173952
1422	0.0116919
1434	0.0227184
1446	0.0615012
1458	0.118535
1470	0.134124
1482	0.0790866
1494	0.0307981
1506	0.0120721
1518	0.0071292
1530	0.00503797
1542	0.00541819
1554	0.00608358
1566	0.00484786
1578	0.00418246
1590	0.00408741
1602	0.00370718
1614	0.00370718
1626	0.00304179
1638	0.00342202
1650	0.0038973
1662	0.00370718
1674	0.00361213
1686	0.00247146
1698	0.0023764
1710	0.00142584
1722	0.00123573
1734	0.00142584
1746	0.00095056
1758	0.00095056
1770	0.000855504
1782	0.00095056
1794	0.000855504
1806	0.000380224
1818	0.000855504
1830	0.000760448
1842	0.000570336
1854	0.000760448
1866	0.000190112
1878	0.000665392
1890	0.000190112
1902	0.000285168
1914	0.000285168
1926	0.000285168
1938	0.00047528
1950	9.5056e-05
1962	9.5056e-05
1974	0.000190112
1986	0.000190112
1998	0.000190112
2010	0.000190112
2022	9.5056e-05
2034	0.000665392
2046	0.00047528
2058	0.00047528
2070	9.5056e-05
2082	0
2094	0
2106	0.000285168
2118	0.000380224
2130	0.000380224
2142	0.000380224
2154	0.000380224
2166	9.5056e-05
2178	0.000285168
2190	0.000285168
2202	0.000855504
2214	0.000285168
2226	0.000285168
2238	0.000190112
2250	0.000285168
2262	0.00047528
2274	0.000760448
2286	0.000570336
2298	0.00104562
2310	0.00142584
2322	0.0015209
2334	0.00171101
2346	0.00133078
2358	0.0023764
2370	0.00047528
2382	0.000760448
2394	0.00228134
2406	0.00218629
2418	0.00266157
2430	0.00228134
2442	0.00180606
2454	0.00123573
2466	0.00123573
2478	0.00123573
2490	0.0015209
2502	0.00133078
2514	0.00133078
2526	0.00142584
2538	0.00180606
2550	0.00218629
2562	0.00332696
2574	0.0047528
2586	0.00598853
2598	0.00703414
2610	0.00769954
2622	0.00722426
2634	0.00703414
2646	0.00674898
2658	0.00665392
2670	0.00674898
2682	0.00722426
2694	0.00845998
2706	0.00893526
2718	0.0105512
2730	0.0141633
2742	0.0166348
2754	0.0168249
2766	0.0144485
2778	0.0153991
2790	0.0179656
2802	0.0224332
2814	0.0285168
2826	0.0355509
2838	0.0505698
2850	0.104181
2862	0.21302
2874	0.376802
2886	0.431079
2898	0.395908
2910	0.407315
2922	0.518245
2934	0.581362
2946	0.566058
2958	0.700373
2970	0.95056
2982	0.692578
2994	0.223191
3006	0.0693909
3018	0.0380224
3030	0.0304179
3042	0.0280415
3054	0.0263305
3066	0.0240492
3078	0.0212925
3090	0.0177755
3102	0.0148287
3114	0.0130227
3126	0.0124523
3138	0.0116919
3150	0.0125474
3162	0.0129276
3174	0.0129276
3186	0.0108364
3198	0.00655886
3210	0.00465774
3222	0.00370718
3234	0.00266157
3246	0.00171101
3258	0.000760448
3270	0.00142584
3282	0.000855504
3294	0.00180606
3306	0.000665392
3318	0.000855504
3330	0.00095056
3342	0.00095056
3354	0.00114067
3366	0.00104562
3378	0.00095056
3390	0.00095056
3402	0.00095056
3414	0.00095056
3426	0.00095056
3438	0.00047528
3450	0.000380224
3462	0.000760448
3474	0.00047528
3486	0.000570336
3498	0.000570336
3510	0.000570336
3522	0.000570336
3534	0.00123573
3546	0.00047528
3558	0.000855504
3570	0.000855504
3582	0.000760448
3594	0.00104562
3606	0.00123573
3618	0.00104562
3630	0.00180606
3642	0.00142584
3654	0.000760448
3666	0.00313685
3678	0.00285168
3690	0.00275662
3702	0.00266157
3714	0.00294674
3726	0.00304179
3738	0.00361213
3750	0.00275662
3762	0.00247146
3774	0.0023764
3786	0.00285168
3798	0.00275662
3810	0.00456269
3822	0.00446763
3834	0.00380224
3846	0.00408741
3858	0.00427752
3870	0.00456269
3882	0.00408741
3894	0.00503797
3906	0.00456269
3918	0.00437258
3930	0.00484786
3942	0.00427752
3954	0.00513302
3966	0.00465774
