Infrared Spectrum: 3-METHYL PENTANE
Formula: C6 H14
CAS: 96-14-0
State: LIQUID (NEAT)
Class: COBLENTZ
Instrument: Not specified, most likely a grating or hybrid spectrometer.
Sampling: TRANSMISSION
Path length: 0.0096 CM (CsBr CELL)
Resolution: 4
Origin: DOW CORNING CORP.
1/CM	TRANSMITTANCE
240.851	0.623
249.787	0.652
258.723	0.713
267.66	0.766
276.596	0.795
285.532	0.839
294.468	0.883
303.404	0.898
312.341	0.91
321.277	0.935
330.213	0.947
339.149	0.945
348.085	0.942
357.022	0.94
365.958	0.944
374.894	0.937
383.83	0.916
392.766	0.924
401.703	0.928
410.639	0.926
419.575	0.919
428.511	0.898
437.447	0.879
446.384	0.886
455.32	0.89
464.256	0.869
473.192	0.876
482.128	0.902
491.065	0.902
500.001	0.89
508.937	0.883
517.873	0.876
526.809	0.839
535.746	0.863
544.682	0.834
553.618	0.895
562.554	0.904
571.491	0.898
580.427	0.9
589.363	0.904
598.299	0.905
607.235	0.9
616.172	0.891
625.108	0.87
634.044	0.87
642.98	0.867
651.916	0.851
660.853	0.835
669.789	0.7241
678.725	0.823
687.661	0.825
696.597	0.808
705.534	0.813
714.47	0.797
723.406	0.757
732.342	0.663
741.278	0.591
750.215	0.6229
759.151	0.5231
768.087	0.39
777.023	0.4111
785.959	0.652
794.896	0.677
803.832	0.595
812.768	0.478
821.704	0.712
830.64	0.762
839.577	0.766
848.513	0.766
857.449	0.752
866.385	0.6559
875.321	0.631
884.258	0.726
893.194	0.76
902.13	0.755
911.066	0.745
920.002	0.726
928.939	0.687
937.875	0.5611
946.811	0.197
955.747	0.296
964.683	0.408
973.62	0.319
982.556	0.137
991.492	0.3558
1000.43	0.446
1009.36	0.389
1018.3	0.4829
1027.24	0.523
1036.17	0.408
1045.11	0.5061
1054.05	0.591
1062.98	0.607
1071.92	0.616
1080.85	0.616
1089.79	0.61
1098.73	0.603
1107.66	0.591
1116.6	0.465
1125.54	0.492
1134.47	0.436
1143.41	0.376
1152.34	0.401
1161.28	0.546
1170.22	0.589
1179.15	0.647
1188.09	0.677
1197.02	0.68
1205.96	0.684
1214.9	0.678
1223.83	0.663
1232.77	0.628
1241.71	0.499
1250.64	0.534
1259.58	0.56
1268.51	0.52
1277.45	0.516
1286.39	0.513
1295.32	0.411
1304.26	0.506
1313.2	0.4761
1322.13	0.513
1331.07	0.474
1340	0.411
1348.94	0.331
1357.88	0.256
1366.81	0.0379
1375.75	0
1384.68	0.092
1393.62	0.247
1402.56	0.328
1411.49	0.312
1420.43	0.263
1429.37	0.171
1438.3	0.045
1447.24	0
1456.17	0
1465.11	0
1474.05	0.031
1482.98	0.157
1491.92	0.3151
1500.86	0.415
1509.79	0.479
1518.73	0.513
1527.66	0.542
1536.6	0.554
1545.54	0.567
1554.47	0.577
1563.41	0.582
1572.35	0.593
1581.28	0.6
1590.22	0.605
1599.15	0.612
1608.09	0.614
1617.03	0.617
1625.96	0.614
1634.9	0.603
1643.83	0.595
1652.77	0.591
1661.71	0.591
1670.64	0.596
1679.58	0.609
1688.52	0.617
1697.45	0.638
1706.39	0.638
1715.32	0.643
1724.26	0.647
1733.2	0.647
1742.13	0.649
1751.07	0.647
1760.01	0.65
1768.94	0.652
1777.88	0.65
1786.81	0.652
1795.75	0.652
1804.69	0.647
1813.62	0.649
1822.56	0.65
1831.5	0.654
1840.43	0.65
1849.37	0.652
1858.3	0.654
1867.24	0.656
1876.18	0.654
1885.11	0.65
1894.05	0.649
1902.98	0.647
1911.92	0.64
1920.86	0.642
1929.79	0.643
1938.73	0.643
1947.67	0.642
1956.6	0.645
1965.54	0.647
1974.47	0.647
1983.41	0.643
1992.35	0.643
2001.28	0.643
2010.22	0.643
2019.16	0.641
2028.09	0.636
2037.03	0.6296
2045.96	0.628
2054.9	0.623
2063.84	0.6299
2072.77	0.628
2081.71	0.6192
2090.65	0.6166
2099.58	0.6159
2108.52	0.6131
2117.45	0.6091
2126.39	0.603
2135.33	0.603
2144.26	0.6008
2153.2	0.6002
2162.13	0.598
2171.07	0.6
2180.01	0.5956
2188.94	0.5932
2197.88	0.589
2206.82	0.589
2215.75	0.588
2224.69	0.586
2233.62	0.5853
2242.56	0.5823
2251.5	0.5803
2260.43	0.5787
2269.37	0.581
2278.31	0.579
2287.24	0.5726
2296.18	0.5672
2305.11	0.555
2314.05	0.547
2322.99	0.535
2331.92	0.5386
2340.86	0.5426
2349.79	0.5456
2358.73	0.547
2367.67	0.546
2376.6	0.544
2385.54	0.5394
2394.48	0.525
2403.41	0.5187
2412.35	0.5125
2421.28	0.5085
2430.22	0.522
2439.16	0.5343
2448.09	0.541
2457.03	0.5405
2465.97	0.535
2474.9	0.5447
2483.84	0.5295
2492.77	0.5292
2501.71	0.53
2510.65	0.5273
2519.58	0.5266
2528.52	0.523
2537.46	0.52
2546.39	0.5082
2555.33	0.4917
2564.26	0.4676
2573.2	0.458
2582.14	0.4476
2591.07	0.3941
2600.01	0.382
2608.94	0.3906
2617.88	0.396
2626.82	0.392
2635.75	0.4086
2644.69	0.396
2653.63	0.389
2662.56	0.389
2671.5	0.3894
2680.43	0.3725
2689.37	0.3665
2698.31	0.365
2707.24	0.3236
2716.18	0.3118
2725.12	0.293
2734.05	0.2482
2742.99	0.2619
2751.92	0.3192
2760.86	0.3179
2769.8	0.3066
2778.73	0.2833
2787.67	0.2483
2796.61	0.1944
2805.54	0.1433
2814.48	0.0952
2823.41	0.0614
2832.35	0.0282
2841.29	0
2850.22	0
2859.16	0
2868.09	0
2877.03	0
2885.97	0
2894.9	0
2903.84	0
2912.78	0
2921.71	0
2930.65	0
2939.58	0
2948.52	0
2957.46	0
2966.39	0
2975.33	0
2984.27	0
2993.2	0.007
3002.14	0.0529
3011.07	0.102
3020.01	0.1393
3028.95	0.18
3037.88	0.2105
3046.82	0.2382
3055.75	0.2536
3064.69	0.2678
3073.63	0.2867
3082.56	0.3086
3091.5	0.3252
3100.44	0.342
3109.37	0.3538
3118.31	0.3571
3127.24	0.364
3136.18	0.3553
3145.12	0.3453
3154.05	0.3349
3162.99	0.3211
3171.93	0.3177
3180.86	0.3299
3189.8	0.3517
3198.73	0.3801
3207.67	0.3977
3216.61	0.4125
3225.54	0.4256
3234.48	0.4336
3243.42	0.443
3252.35	0.445
3261.29	0.446
3270.22	0.4456
3279.16	0.446
3288.1	0.4476
3297.03	0.448
3305.97	0.448
3314.9	0.448
3323.84	0.446
3332.78	0.445
3341.71	0.4395
3350.65	0.4395
3359.59	0.445
3368.52	0.4465
3377.46	0.448
3386.39	0.45
3395.33	0.448
3404.27	0.446
3413.2	0.448
3422.14	0.45
3431.08	0.4544
3440.01	0.4584
3448.95	0.4634
3457.88	0.465
3466.82	0.465
3475.76	0.464
3484.69	0.464
3493.63	0.4642
3502.57	0.4657
3511.5	0.467
3520.44	0.4683
3529.37	0.4707
3538.31	0.467
3547.25	0.467
3556.18	0.4657
3565.12	0.465
3574.05	0.465
3582.99	0.4638
3591.93	0.46
3600.86	0.4568
3609.8	0.453
3618.74	0.4498
3627.67	0.4468
3636.61	0.4448
3645.54	0.441
3654.48	0.441
3663.42	0.4368
3672.35	0.434
3681.29	0.438
3690.23	0.439
3699.16	0.438
3708.1	0.439
3717.03	0.439
3725.97	0.439
3734.91	0.439
3743.84	0.439
3752.78	0.439
3761.71	0.441
3770.65	0.443
3779.59	0.443
3788.52	0.442
