Infrared Spectrum: 1,1-Dimethylcyclopropane
Formula: C 5 H 10
CAS: 1630-94-0
State: gas
Instrument: HP-GC/MS/IRD
Origin: NIST Mass Spectrometry Data Center
1/CM	ABSORBANCE
550	0.0003848
562	0.0002912
574	2.6e-05
586	9.36e-05
598	2.6e-06
610	0
622	0.0001248
634	9.62e-05
646	0.0002314
658	0.0003406
670	0.0003068
682	0.0003276
694	0.000299
706	0.0003276
718	0.0001612
730	0.0001144
742	0.0001118
754	9.88e-05
766	7.54e-05
778	0.0001898
790	0.0002366
802	0.0004472
814	0.000819
826	0.0010686
838	0.001846
850	0.0008398
862	0.0006994
874	0.0002964
886	0.000182
898	0.0004446
910	0.0013364
922	0.0017446
934	0.0020124
946	0.0017316
958	0.000793
970	0.0003848
982	0.0008892
994	0.0023322
1006	0.002925
1018	0.0028158
1030	0.00247
1042	0.0010192
1054	0.0003276
1066	0.0001846
1078	0.0001352
1090	0.0002704
1102	0.0003354
1114	0.0004342
1126	0.0007696
1138	0.0005642
1150	0.0005486
1162	0.0003068
1174	0.0002184
1186	0.0002132
1198	0.0002288
1210	0.000195
1222	0.0002444
1234	0.0002886
1246	0.0003328
1258	0.0003692
1270	0.0004758
1282	0.0005356
1294	0.0006968
1306	0.0008242
1318	0.000728
1330	0.0005564
1342	0.0006084
1354	0.000975
1366	0.0016796
1378	0.002366
1390	0.0022568
1402	0.0022412
1414	0.0017758
1426	0.0019734
1438	0.0033904
1450	0.0032058
1462	0.0035646
1474	0.0025116
1486	0.001833
1498	0.0009672
1510	0.0005616
1522	0.0003432
1534	0.000247
1546	0.0001794
1558	0.0002626
1570	0.0002418
1582	0.000221
1594	0.0002288
1606	0.0002574
1618	0.0002652
1630	0.0002808
1642	0.0003094
1654	0.0003406
1666	0.0003588
1678	0.0003614
1690	0.0003458
1702	0.0003718
1714	0.000273
1726	0.0002132
1738	0.0002158
1750	0.0001924
1762	0.0002002
1774	0.0002704
1786	0.0002522
1798	0.0002912
1810	0.0002756
1822	0.0002704
1834	0.0002574
1846	0.0002834
1858	0.0002054
1870	0.0001742
1882	0.0001066
1894	0.0001014
1906	0.0001326
1918	0.0001482
1930	0.0002314
1942	0.0002366
1954	0.0002392
1966	0.0002444
1978	0.0002002
1990	0.0001794
2002	0.0001534
2014	0.0002028
2026	0.0002886
2038	0.0003718
2050	0.00052
2062	0.0003406
2074	0.0003172
2086	0.0002886
2098	0.0002158
2110	0.000117
2122	8.32e-05
2134	4.94e-05
2146	6.5e-05
2158	7.28e-05
2170	2.86e-05
2182	5.46e-05
2194	2.6e-06
2206	4.42e-05
2218	4.42e-05
2230	8.32e-05
2242	5.98e-05
2254	5.46e-05
2266	6.76e-05
2278	5.98e-05
2290	6.24e-05
2302	8.58e-05
2314	0.0001248
2326	0.0001534
2338	0.0001456
2350	8.06e-05
2362	9.62e-05
2374	3.38e-05
2386	1.3e-05
2398	3.9e-05
2410	2.86e-05
2422	5.98e-05
2434	4.94e-05
2446	5.46e-05
2458	7.8e-05
2470	0.0001222
2482	0.0001118
2494	4.68e-05
2506	4.68e-05
2518	5.98e-05
2530	4.42e-05
2542	2.6e-06
2554	2.08e-05
2566	2.86e-05
2578	5.72e-05
2590	5.72e-05
2602	0.0001092
2614	5.46e-05
2626	5.72e-05
2638	4.94e-05
2650	8.58e-05
2662	9.1e-05
2674	5.46e-05
2686	8.32e-05
2698	0.0001456
2710	0.0002626
2722	0.0004836
2734	0.0007566
2746	0.001105
2758	0.0009464
2770	0.0007384
2782	0.0005538
2794	0.0006162
2806	0.0007618
2818	0.0010686
2830	0.0015756
2842	0.0023634
2854	0.0045474
2866	0.007228
2878	0.0096902
2890	0.0112008
2902	0.0119314
2914	0.0127478
2926	0.0147524
2938	0.018356
2950	0.026
2962	0.0215306
2974	0.0174746
2986	0.013078
2998	0.0090948
3010	0.0086372
3022	0.0055588
3034	0.0038298
3046	0.0032266
3058	0.0052078
3070	0.0066794
3082	0.0068848
3094	0.0052754
3106	0.0023452
3118	0.0008996
3130	0.000676
3142	0.00065
3154	0.0006734
3166	0.0005642
3178	0.0005044
3190	0.0003354
3202	0.0002574
3214	0.0001638
3226	6.76e-05
3238	9.1e-05
3250	0.0001092
3262	7.8e-05
3274	0.0001742
3286	0.0001248
3298	0.0002002
3310	0.0001898
3322	0.0002366
3334	0.0002444
3346	0.0002288
3358	0.000169
3370	0.0001274
3382	0.000143
3394	0.0001612
3406	9.62e-05
3418	0.000117
3430	0.0001144
3442	5.72e-05
3454	7.28e-05
3466	5.72e-05
3478	7.28e-05
3490	8.32e-05
3502	0.0001014
3514	5.2e-05
3526	8.06e-05
3538	4.42e-05
3550	5.2e-06
3562	7.28e-05
3574	5.2e-05
3586	0.0001404
3598	0.000156
3610	0.0001222
3622	9.1e-05
3634	0.0001612
3646	0.0001846
3658	0.0001196
3670	0.0001248
3682	0.0001352
3694	0.000104
3706	0.0001092
3718	7.8e-05
3730	0.0001586
3742	0.0001716
3754	0.0001716
3766	0.0001456
3778	0.000169
3790	0.0001586
3802	0.0002808
3814	0.0002132
3826	0.0002548
3838	0.0002834
