Infrared Spectrum: Thiomorpholine
Formula: C 4 H 9 N S
CAS: 123-90-0
State: gas
Origin: EPA-IR VAPOR PHASE LIBRARY
1/CM	ABSORBANCE
549.9	0.005292
559.547	0.002932
569.193	0.002342
578.84	0.002122
588.486	0.002412
598.133	0.002862
607.779	0.003302
617.426	0.003902
627.072	0.005362
636.719	0.008242
646.365	0.011022
656.012	0.012752
665.658	0.013092
675.305	0.013312
684.951	0.017042
694.598	0.024132
704.245	0.029642
713.891	0.031832
723.538	0.030992
733.184	0.020852
742.831	0.014372
752.477	0.007682
762.124	0.004252
771.77	0.003312
781.417	0.003012
791.063	0.003082
800.71	0.003052
810.356	0.003032
820.003	0.003002
829.649	0.003192
839.296	0.003192
848.943	0.003292
858.589	0.002552
868.236	0.0017385
877.882	0.0014089
887.529	0.0013481
897.175	0.001275
906.822	0.0013204
916.468	0.0016819
926.115	0.002242
935.761	0.003152
945.408	0.004952
955.054	0.007502
964.701	0.010602
974.347	0.014732
983.994	0.011262
993.64	0.010032
1003.29	0.006982
1012.93	0.005082
1022.58	0.003102
1032.23	0.002912
1041.87	0.003242
1051.52	0.003522
1061.17	0.003102
1070.81	0.002712
1080.46	0.002352
1090.11	0.002672
1099.75	0.003752
1109.4	0.006072
1119.05	0.010022
1128.69	0.013642
1138.34	0.016142
1147.99	0.013982
1157.63	0.009572
1167.28	0.005822
1176.92	0.004562
1186.57	0.006142
1196.22	0.007202
1205.86	0.006932
1215.51	0.005042
1225.16	0.002992
1234.8	0.002372
1244.45	0.003432
1254.1	0.006952
1263.74	0.011942
1273.39	0.012452
1283.04	0.012642
1292.68	0.008872
1302.33	0.009022
1311.98	0.013792
1321.62	0.013932
1331.27	0.013922
1340.92	0.008672
1350.56	0.004992
1360.21	0.004492
1369.86	0.004602
1379.5	0.004132
1389.15	0.004022
1398.79	0.005682
1408.44	0.009082
1418.09	0.011382
1427.73	0.015262
1437.38	0.014412
1447.03	0.015172
1456.67	0.012382
1466.32	0.008002
1475.97	0.004002
1485.61	0.0018341
1495.26	0.0010946
1504.91	0.000831
1514.55	0.000747
1524.2	0.000772
1533.85	0.000785
1543.49	0.000847
1553.14	0.0008641
1562.79	0.000755
1572.43	0.000674
1582.08	0.000571
1591.73	0.000576
1601.37	0.00055
1611.02	0.000655
1620.67	0.000585
1630.31	0.000605
1639.96	0.000566
1649.6	0.000569
1659.25	0.000586
1668.9	0.000627
1678.54	0.000523
1688.19	0.000446
1697.84	0.000445
1707.48	0.000423
1717.13	0.000524
1726.78	0.000421
1736.42	0.00045
1746.07	0.00042
1755.72	0.00052
1765.36	0.000428
1775.01	0.000487
1784.66	0.000446
1794.3	0.000485
1803.95	0.000566
1813.6	0.00058
1823.24	0.00054
1832.89	0.000581
1842.54	0.000574
1852.18	0.000623
1861.83	0.000609
1871.47	0.000508
1881.12	0.000467
1890.77	0.00056
1900.41	0.000466
1910.06	0.000509
1919.71	0.000507
1929.35	0.000606
1939	0.000649
1948.65	0.000715
1958.29	0.000706
1967.94	0.000789
1977.59	0.000816
1987.23	0.000636
1996.88	0.000565
2006.53	0.000476
2016.17	0.000439
2025.82	0.00041
2035.47	0.000415
2045.11	0.000366
2054.76	0.000392
2064.41	0.000419
2074.05	0.000407
2083.7	0.000401
2093.35	0.000411
2102.99	0.000552
2112.64	0.00056
2122.28	0.000588
2131.93	0.00052
2141.58	0.000559
2151.22	0.00055
2160.87	0.0006
2170.52	0.000637
2180.16	0.00073
2189.81	0.000714
2199.46	0.000781
2209.1	0.000833
2218.75	0.000687
2228.4	0.000656
2238.04	0.000615
2247.69	0.000594
2257.34	0.000548
2266.98	0.000527
2276.63	0.000567
2286.28	0.000566
2295.92	0.000508
2305.57	0.00051
2315.22	0.000457
2324.86	0.000464
2334.51	0.000572
2344.16	0.000489
2353.8	0.000623
2363.45	0.000663
2373.09	0.000642
2382.74	0.000647
2392.39	0.00062
2402.03	0.000605
2411.68	0.000509
2421.33	0.000489
2430.97	0.000503
2440.62	0.000516
2450.27	0.00048
2459.91	0.000521
2469.56	0.000543
2479.21	0.000541
2488.85	0.000563
2498.5	0.000554
2508.15	0.000468
2517.79	0.000415
2527.44	0.000527
2537.09	0.000501
2546.73	0.000605
2556.38	0.000594
2566.03	0.000686
2575.67	0.0008692
2585.32	0.0009151
2594.96	0.000968139
2604.61	0.0011036
2614.26	0.0014584
2623.9	0.001878
2633.55	0.002142
2643.2	0.002282
2652.84	0.002152
2662.49	0.002322
2672.14	0.002972
2681.78	0.003332
2691.43	0.003352
2701.08	0.003332
2710.72	0.003432
2720.37	0.003952
2730.02	0.004972
2739.66	0.006442
2749.31	0.007182
2758.96	0.005902
2768.6	0.005742
2778.25	0.006202
2787.9	0.009412
2797.54	0.016262
2807.19	0.024682
2816.84	0.032782
2826.48	0.039232
2836.13	0.043032
2845.77	0.033842
2855.42	0.025922
2865.07	0.018912
2874.71	0.017872
2884.36	0.022012
2894.01	0.031132
2903.65	0.045902
2913.3	0.061602
2922.95	0.094032
2932.59	0.094892
2942.24	0.091482
2951.89	0.072922
2961.53	0.040672
2971.18	0.022002
2980.83	0.011882
2990.47	0.004282
3000.12	0.0017803
3009.77	0.0010157
3019.41	0.000847
3029.06	0.000584
3038.71	0.000456
3048.35	0.000433
3058	0.000354
3067.64	0.000247
3077.29	0.000665
3086.94	0.000467
3096.58	0.000557
3106.23	0.000506
3115.88	0.000386
3125.52	0.000465
3135.17	0.000476
3144.82	0.000435
3154.46	0.000536
3164.11	0.000685
3173.76	0.000558
3183.4	0.000487
3193.05	0.000404
3202.7	0.000559
3212.34	0.000463
3221.99	0.00019
3231.64	0.000324
3241.28	0.000366
3250.93	0.000384
3260.58	0.000521
3270.22	0.000389
3279.87	0.000395
3289.52	0.00053
3299.16	0.000354
3308.81	0.000692
3318.45	0.000278
3328.1	0.000469
3337.75	0.000707
3347.39	0.000422
3357.04	0.000673
3366.69	0.000768
3376.33	0.000823
3385.98	0.00052
3395.63	0.000477
3405.27	0.000358
3414.92	0.000253
3424.57	0.000193
3434.21	0.000155
3443.86	0.000203
3453.51	6e-05
3463.15	0.000466
3472.8	0.000275
3482.45	0.000457
3492.09	0.000285
3501.74	0.00027
3511.39	0.000276
3521.03	0.00019
3530.68	0.000286
3540.33	0
3549.97	0.000163
3559.62	0.000382
3569.26	0.000216
3578.91	0.000278
3588.56	0.000413
3598.2	0.000278
3607.85	0.000518
3617.5	0.000336
3627.14	0.000368
3636.79	0.000397
3646.44	0.000343
3656.08	0.000372
3665.73	0.000365
3675.38	0.000484
3685.02	0.000375
3694.67	0.000466
3704.32	0.000326
3713.96	0.000461
3723.61	0.000404
3733.26	0.000382
3742.9	0.000529
3752.55	0.000261
3762.2	0.000521
3771.84	0.000544
3781.49	0.000527
3791.13	0.000391
3800.78	0.000407
3810.43	0.000413
3820.07	0.000448
3829.72	0.000434
3839.37	0.000588
3849.01	0.000484
3858.66	0.000559
3868.31	0.000707
3877.95	0.000566
3887.6	0.000698
3897.25	0.000614
3906.89	0.000661
3916.54	0.000524
3926.19	0.000739
3935.83	0.00072
3945.48	0.000635
3955.13	0.0008995
3964.77	0.000623
3974.42	0.000654
3984.07	0.000651
3993.71	0.000669
