Infrared Spectrum: 2-Propanol, 1,3-dibromo-
Formula: C 3 H 6 Br 2 O
CAS: 96-21-9
State: gas
Origin: Sadtler Research Labs Under US-EPA Contract
1/CM	ABSORBANCE
450	0.112714
462	0.119832
474	0.170076
486	0.247787
498	0.205163
510	0.150397
522	0.0775432
534	0.0790506
546	0.0769571
558	0.0720164
570	0.0756172
582	0.0786319
594	0.0845774
606	0.116064
618	0.106015
630	0.125526
642	0.149476
654	0.148052
666	0.30473
678	0.291918
690	0.599997
702	0.341994
714	0.0993994
726	0.0348358
738	0.0119748
750	0.0102163
762	0.0107187
774	0.00385204
786	0.00117236
798	0.0257082
810	0.10434
822	0.105261
834	0.0487367
846	0.0602091
858	0.0727701
870	0.025457
882	0.00728538
894	0.008374
906	0.0194277
918	0.0597904
930	0.109699
942	0.0327423
954	0.0175017
966	0.0292253
978	0.0523375
990	0.0834888
1002	0.187243
1014	0.489125
1026	0.836479
1038	0.624952
1050	0.395253
1062	0.342245
1074	0.302301
1086	0.436704
1098	0.376328
1110	0.22861
1122	0.29309
1134	0.214961
1146	0.162623
1158	0.143112
1170	0.162623
1182	0.312769
1194	0.423976
1206	0.44625
1218	0.514834
1230	0.546403
1242	0.384702
1254	0.406809
1266	0.670004
1278	0.468777
1290	0.16681
1302	0.0996506
1314	0.0873408
1326	0.0973896
1338	0.161786
1350	0.221241
1362	0.28346
1374	0.396174
1386	0.327675
1398	0.154584
1410	0.105345
1422	0.352964
1434	0.5799
1446	0.256077
1458	0.0534261
1470	0.0284716
1482	0.0196789
1494	0.0179204
1506	0.0261269
1518	0.0165805
1530	0.0103
1542	0.0092114
1554	0.0145708
1566	0.00728538
1578	0.00427074
1590	0.00653172
1602	0.00728538
1614	0.00937888
1626	0.00644798
1638	0.00309838
1650	0.00636424
1662	0.00535936
1674	0.0058618
1686	0.0046057
1698	0.00803904
1710	0.00360082
1722	0.00343334
1734	0.0075366
1746	0.00636424
1758	0.00695042
1770	0.0066992
1782	0.00485692
1794	0.00385204
1806	0.00217724
1818	0.00259594
1830	0.00301464
1842	0.00360082
1854	0.00284716
1866	0.00401952
1878	0.00468944
1890	0.00611302
1902	0.00452196
1914	0.00477318
1926	0.004187
1938	0.00468944
1950	0.00468944
1962	0.00410326
1974	0.00309838
1986	0.00242846
1998	0.00301464
2010	0.0033496
2022	0.0037683
2034	0.00527562
2046	0.00695042
2058	0.00862522
2070	0.00720164
2082	0.00602928
2094	0.00410326
2106	0.00452196
2118	0.00577806
2130	0.00577806
2142	0.00435448
2154	0.00410326
2166	0.00468944
2178	0.00552684
2190	0.00494066
2202	0.00385204
2214	0.00385204
2226	0.00477318
2238	0.0066992
2250	0.00812278
2262	0.00787156
2274	0.0092114
2286	0.00862522
2298	0.00577806
2310	0.00410326
2322	0.0037683
2334	0.00259594
2346	0.00142358
2358	0.0066992
2370	0.00025122
2382	0.00385204
2394	0.00569432
2406	0.0046057
2418	0.00410326
2430	0.00494066
2442	0.0062805
2454	0.00678294
2466	0.00602928
2478	0.004187
2490	0.00284716
2502	0.00184228
2514	0.0016748
2526	0.0016748
2538	0.00150732
2550	0.00108862
2562	0.00092114
2574	0.00150732
2586	0.00259594
2598	0.00192602
2610	0.00192602
2622	0.00217724
2634	0.00569432
2646	0.0062805
2658	0.00829026
2670	0.0103838
2682	0.00954636
2694	0.00854148
2706	0.0050244
2718	0.004187
2730	0.0046057
2742	0.00644798
2754	0.00561058
2766	0.0037683
2778	0.0037683
2790	0.00427074
2802	0.00535936
2814	0.00678294
2826	0.00971384
2838	0.0231122
2850	0.0355895
2862	0.0495741
2874	0.0559383
2886	0.0585343
2898	0.0805579
2910	0.122679
2922	0.126615
2934	0.0707603
2946	0.0370131
2958	0.0685831
2970	0.230704
2982	0.264451
2994	0.10434
3006	0.0230285
3018	0.0303976
3030	0.0494903
3042	0.0267131
3054	0.00720164
3066	0.00351708
3078	0.00284716
3090	0.00276342
3102	0.0025122
3114	0.00092114
3126	0.00142358
3138	0.0008374
3150	0.00092114
3162	0.00184228
3174	0.00100488
3186	0.00117236
3198	0.00175854
3210	0.0020935
3222	0.00443822
3234	0.00561058
3246	0.00284716
3258	0.00351708
3270	0.00485692
3282	0.00695042
3294	0.00644798
3306	0.00611302
3318	0.00561058
3330	0.004187
3342	0.00368456
3354	0.004187
3366	0.004187
3378	0.0046057
3390	0.0037683
3402	0.00494066
3414	0.00845774
3426	0.0112212
3438	0.0133984
3450	0.00979758
3462	0.00929514
3474	0.00787156
3486	0.00820652
3498	0.00971384
3510	0.0104675
3522	0.0144033
3534	0.0272155
3546	0.031235
3558	0.0379342
3570	0.156594
3582	0.371806
3594	0.287312
3606	0.392908
3618	0.258757
3630	0.158185
3642	0.0914441
3654	0.058618
3666	0.0404464
3678	0.0283041
3690	0.0220236
3702	0.0141521
3714	0.0165805
3726	0.0182553
3738	0.0213537
3750	0.0221074
3762	0.0129797
3774	0.0102163
3786	0.0115561
3798	0.0124773
3810	0.0096301
3822	0.0133147
3834	0.0142358
3846	0.0145708
3858	0.0172504
3870	0.0176691
3882	0.0214374
3894	0.0192602
3906	0.0211025
3918	0.0185903
3930	0.0203488
3942	0.02127
3954	0.0166643
3966	0.0147382
