Infrared Spectrum: 1,3-DIBROMO-2-PROPANOL
Formula: C3 H6 Br2 O
CAS: 96-21-9
State: LIQUID
Melting point: 89-90 C AT 10 mmHg
Class: COBLENTZ
Instrument: Not specified, most likely a prism, grating, or hybrid spectrometer.
Sampling: TRANSMISSION
Path length: 0.003 CM
Resolution: 4
Origin: WYANDOTTE CHEMICALS CORP., WYANDOTTE, MICHIGAN, USA
MICROMETERS	TRANSMITTANCE
2.024	0.978
2.06385	0.979
2.10371	0.981
2.14356	0.988
2.18342	0.948
2.22327	0.973
2.26313	0.966
2.30298	0.953
2.34283	0.963
2.38269	0.974
2.42254	0.969
2.4624	0.959
2.50225	0.954
2.54211	0.951
2.58196	0.951
2.62181	0.958
2.66167	0.958
2.70152	0.936
2.74138	0.813
2.78123	0.572
2.82109	0.245
2.86094	0.165
2.9008	0.116
2.94065	0.081
2.9805	0.066
3.02036	0.1
3.06021	0.196
3.10007	0.328
3.13992	0.47
3.17978	0.624
3.21963	0.737
3.25948	0.779
3.29934	0.721
3.33919	0.624
3.37905	0.611
3.4189	0.727
3.45876	0.697
3.49861	0.734
3.53846	0.794
3.57832	0.858
3.61817	0.884
3.65803	0.886
3.69788	0.886
3.73774	0.888
3.77759	0.893
3.81744	0.896
3.8573	0.903
3.89715	0.914
3.93701	0.921
3.97686	0.926
4.01672	0.931
4.05657	0.926
4.09643	0.919
4.13628	0.924
4.17613	0.931
4.21599	0.938
4.25584	0.948
4.2957	0.951
4.33555	0.954
4.37541	0.956
4.41526	0.959
4.45511	0.941
4.49497	0.938
4.53482	0.953
4.57468	0.963
4.61453	0.971
4.65439	0.976
4.69424	0.968
4.73409	0.971
4.77395	0.976
4.8138	0.971
4.85366	0.969
4.89351	0.968
4.93337	0.964
4.97322	0.974
5.01307	0.978
5.05293	0.973
5.09278	0.978
5.13264	0.971
5.17249	0.971
5.21235	0.971
5.2522	0.969
5.29205	0.974
5.33191	0.966
5.37176	0.968
5.41162	0.973
5.45147	0.969
5.49133	0.968
5.53118	0.974
5.57104	0.973
5.61089	0.966
5.65074	0.964
5.6906	0.944
5.73045	0.893
5.77031	0.844
5.81016	0.868
5.85002	0.894
5.88987	0.931
5.92972	0.939
5.96958	0.938
6.00943	0.933
6.04929	0.909
6.08914	0.881
6.129	0.871
6.16885	0.896
6.2087	0.924
6.24856	0.936
6.28841	0.933
6.32827	0.933
6.36812	0.934
6.40798	0.928
6.44783	0.921
6.48768	0.924
6.52754	0.911
6.56739	0.906
6.60725	0.893
6.6471	0.881
6.68696	0.851
6.72681	0.828
6.76667	0.741
6.80652	0.679
6.84637	0.574
6.88623	0.474
6.92608	0.252
6.96594	0.08
7.00579	0.111
7.04565	0.238
7.0855	0.3
7.12535	0.347
7.16521	0.353
7.20506	0.352
7.24492	0.372
7.28477	0.492
7.32463	0.574
7.36448	0.547
7.40433	0.45
7.44419	0.407
7.48404	0.455
7.5239	0.47
7.56375	0.454
7.60361	0.422
7.64346	0.388
7.68331	0.337
7.72317	0.298
7.76302	0.262
7.80288	0.235
7.84273	0.186
7.88259	0.21
7.92244	0.253
7.9623	0.232
8.00215	0.181
8.042	0.153
8.08186	0.181
8.12171	0.183
8.16157	0.151
8.20142	0.181
8.24128	0.275
8.28113	0.362
8.32098	0.387
8.36084	0.313
8.40069	0.268
8.44055	0.285
8.4804	0.303
8.52026	0.338
8.56011	0.412
8.59996	0.455
8.63982	0.48
8.67967	0.484
8.71953	0.475
8.75938	0.494
8.79924	0.494
8.83909	0.395
8.87894	0.333
8.9188	0.392
8.95865	0.475
8.99851	0.457
9.03836	0.313
9.07822	0.222
9.11807	0.175
9.15792	0.163
9.19778	0.186
9.23763	0.237
9.27749	0.283
9.31734	0.325
9.3572	0.297
9.39705	0.207
9.43691	0.126
9.47676	0.096
9.51661	0.126
9.55647	0.151
9.59632	0.116
9.63618	0.078
9.67603	0.045
9.71589	0.038
9.75574	0.045
9.79559	0.131
9.83545	0.252
9.8753	0.414
9.91516	0.55
9.95501	0.619
9.99487	0.669
10.0347	0.687
10.0746	0.672
10.1144	0.631
10.1543	0.59
10.1941	0.574
10.234	0.611
10.2738	0.656
10.3137	0.684
10.3536	0.714
10.3934	0.729
10.4333	0.746
10.4731	0.769
10.513	0.786
10.5528	0.797
10.5927	0.801
10.6325	0.792
10.6724	0.741
10.7122	0.659
10.7521	0.582
10.792	0.617
10.8318	0.699
10.8717	0.726
10.9115	0.714
10.9514	0.704
10.9912	0.719
11.0311	0.739
11.0709	0.754
11.1108	0.784
11.1506	0.804
11.1905	0.808
11.2304	0.804
11.2702	0.803
11.3101	0.786
11.3499	0.786
11.3898	0.777
11.4296	0.762
11.4695	0.707
11.5093	0.642
11.5492	0.597
11.589	0.577
11.6289	0.565
11.6687	0.579
11.7086	0.58
11.7485	0.584
11.7883	0.604
11.8282	0.626
11.868	0.637
11.9079	0.634
11.9477	0.619
11.9876	0.606
12.0274	0.582
12.0673	0.557
12.1071	0.545
12.147	0.522
12.1869	0.492
12.2267	0.455
12.2666	0.43
12.3064	0.412
12.3463	0.447
12.3861	0.587
12.426	0.679
12.4658	0.719
12.5057	0.732
12.5455	0.722
12.5854	0.716
12.6253	0.739
12.6651	0.761
12.705	0.781
12.7448	0.781
12.7847	0.772
12.8245	0.767
12.8644	0.771
12.9042	0.769
12.9441	0.771
12.9839	0.771
13.0238	0.771
13.0636	0.769
13.1035	0.772
13.1434	0.771
13.1832	0.764
13.2231	0.764
13.2629	0.737
13.3028	0.767
13.3426	0.757
13.3825	0.756
13.4223	0.749
13.4622	0.746
13.502	0.744
13.5419	0.741
13.5818	0.729
13.6216	0.727
13.6615	0.719
13.7013	0.696
13.7412	0.689
13.781	0.662
13.8209	0.631
13.8607	0.589
13.9006	0.53
13.9404	0.492
13.9803	0.445
14.0202	0.41
14.06	0.404
14.0999	0.415
14.1397	0.43
14.1796	0.437
14.2194	0.444
14.2593	0.432
14.2991	0.414
14.339	0.4
14.3788	0.37
14.4187	0.347
14.4586	0.328
14.4984	0.312
14.5383	0.302
14.5781	0.298
14.618	0.298
14.6578	0.303
14.6977	0.307
14.7375	0.328
14.7774	0.333
14.8172	0.357
14.8571	0.383
14.8969	0.4
14.9368	0.424
14.9767	0.454
15.0165	0.499
15.0564	0.519
15.0962	0.495
15.1361	0.47
15.1759	0.482
15.2158	0.494
15.2556	0.512
15.2955	0.53
15.3353	0.564
15.3752	0.584
15.4151	0.594
15.4549	0.611
15.4948	0.627
15.5346	0.629
15.5745	0.632
15.6143	0.637
15.6542	0.637
15.694	0.634
15.7339	0.636
15.7737	0.642
15.8136	0.647
15.8535	0.662
15.8933	0.671
15.9332	0.681
15.973	0.694
