Infrared Spectrum: Isobutyl iodide
Formula: C 4 H 9 I
CAS: 513-38-2
State: gas
Instrument: HP-GC/MS/IRD
Origin: NIST Mass Spectrometry Data Center
1/CM	ABSORBANCE
550	0.0004275
562	0.000513
574	0.0018753
586	0.0038304
598	0.0072105
610	0.0082365
622	0.0023883
634	0.0005814
646	0.0001938
658	0.000114
670	5.7e-05
682	3.99e-05
694	8.55e-05
706	0.0001254
718	2.85e-05
730	2.85e-05
742	7.98e-05
754	0.0002337
766	0.0007125
778	0.0019437
790	0.0024567
802	0.001767
814	0.0013794
826	0.0013737
838	0.0009006
850	0.0003363
862	0.0001995
874	0.0002394
886	0.0004674
898	0.0004446
910	0.0011685
922	0.002508
934	0.0034599
946	0.0030267
958	0.0017898
970	0.0008493
982	0.0002508
994	0.0002223
1006	0.0003249
1018	0.0005187
1030	0.0008664
1042	0.0009918
1054	0.0009063
1066	0.000741
1078	0.000798
1090	0.0015789
1102	0.0021375
1114	0.0019722
1126	0.0017727
1138	0.0018411
1150	0.0025479
1162	0.0044346
1174	0.0081567
1186	0.0243618
1198	0.0320511
1210	0.0147573
1222	0.0037791
1234	0.001482
1246	0.0008664
1258	0.000684
1270	0.0008721
1282	0.001596
1294	0.0039444
1306	0.0076038
1318	0.0074328
1330	0.0037278
1342	0.0025878
1354	0.0033288
1366	0.0058197
1378	0.009006
1390	0.0095247
1402	0.005301
1414	0.0027303
1426	0.0034713
1438	0.0047709
1450	0.0070509
1462	0.0093651
1474	0.0082821
1486	0.0047538
1498	0.0021432
1510	0.0010374
1522	0.0007068
1534	0.0006213
1546	0.0006099
1558	0.0006327
1570	0.0005757
1582	0.0004446
1594	0.0003819
1606	0.0003705
1618	0.0003762
1630	0.0003876
1642	0.0004161
1654	0.0003705
1666	0.0003705
1678	0.0003249
1690	0.0002964
1702	0.0002451
1714	0.0001881
1726	0.0001596
1738	0.0001026
1750	7.98e-05
1762	0.0001425
1774	0.0001539
1786	0.0001482
1798	0.0001596
1810	0.000171
1822	0.000171
1834	0.000171
1846	0.0001824
1858	0.0001767
1870	0.0001311
1882	0.0001026
1894	7.98e-05
1906	6.27e-05
1918	6.84e-05
1930	2.28e-05
1942	2.85e-05
1954	3.42e-05
1966	6.27e-05
1978	0.0001254
1990	0.0001311
2002	0.000114
2014	8.55e-05
2026	6.84e-05
2038	7.98e-05
2050	2.28e-05
2062	5.7e-06
2074	2.85e-05
2086	5.13e-05
2098	7.98e-05
2110	5.7e-05
2122	0.0001083
2134	0.0001482
2146	0.0001653
2158	0.0001482
2170	0.0001425
2182	0.0001197
2194	0.0001311
2206	0.0001653
2218	0.0001938
2230	0.0001824
2242	0.0001824
2254	0.0001938
2266	0.000171
2278	0.0001368
2290	0.0001368
2302	0.0001254
2314	7.98e-05
2326	6.27e-05
2338	6.27e-05
2350	7.41e-05
2362	0.0001311
2374	0.0002508
2386	0.0003021
2398	0.0002394
2410	0.0001824
2422	7.98e-05
2434	4.56e-05
2446	3.42e-05
2458	4.56e-05
2470	9.12e-05
2482	0.0001083
2494	0.0001368
2506	0.000171
2518	0.0001254
2530	0.0001083
2542	8.55e-05
2554	9.12e-05
2566	0.0001425
2578	0.000285
2590	0.0003876
2602	0.0004446
2614	0.0004503
2626	0.000399
2638	0.0003135
2650	0.0002736
2662	0.000285
2674	0.0002622
2686	0.0002451
2698	0.0002394
2710	0.0002907
2722	0.0005244
2734	0.0007809
2746	0.0008778
2758	0.0008493
2770	0.0008607
2782	0.0008379
2794	0.0009519
2806	0.0012426
2818	0.0016188
2830	0.0022173
2842	0.0034086
2854	0.0058824
2866	0.0105222
2878	0.0147231
2890	0.0142158
2902	0.0126141
2914	0.014136
2926	0.0180462
2938	0.024054
2950	0.0326268
2962	0.0486438
2974	0.055119
2986	0.0346503
2998	0.0115026
3010	0.0059223
3022	0.0036708
3034	0.0020976
3046	0.0014193
3058	0.0013965
3070	0.0014535
3082	0.0013281
3094	0.0011286
3106	0.0010317
3118	0.0009234
3130	0.0009234
3142	0.0008664
3154	0.0008436
3166	0.0008721
3178	0.0009006
3190	0.0008949
3202	0.0007524
3214	0.0005016
3226	0.0003306
3238	0.0002337
3250	0.0002679
3262	0.000228
3274	0.0001653
3286	0.0001368
3298	0.0001026
3310	0.000171
3322	0.0001254
3334	0.0001938
3346	0.0002223
3358	0.0003192
3370	0.0002736
3382	0.0002109
3394	0.0002451
3406	0.0001824
3418	0.0001311
3430	0.0001026
3442	9.69e-05
3454	8.55e-05
3466	9.12e-05
3478	6.84e-05
3490	9.69e-05
3502	3.42e-05
3514	0.0001596
3526	0.000114
3538	0.0001368
3550	9.69e-05
3562	0.0001767
3574	0.0001425
3586	0.0001026
3598	0.000114
3610	0.0001653
3622	0.0001254
3634	6.84e-05
3646	8.55e-05
3658	0.0001311
3670	0.0001083
3682	0.0001083
3694	0.0001311
3706	0.0001425
3718	0.0001482
3730	0.0001767
3742	0.0001539
3754	0.0001596
3766	0.0002052
3778	0.0002223
3790	0.0002109
3802	0.0002907
3814	0.0002508
3826	0.0002622
3838	0.0002793
