Infrared Spectrum: PROPANE, 1-IODO-2-METHYL-
Formula: C4 H9 I
CAS: 513-38-2
State: LIQUID (NEAT)
Class: COBLENTZ III
Instrument: BAIRD (GRATING)
Instrument parameters: NaCl PRISM
Sampling: TRANSMISSION
Path length: 0.003 CM
Resolution: 2
Origin: WYANDOTTE CHEMICALS CORP.
1/CM	TRANSMITTANCE
4000	0.9286
3991	0.9285
3982	0.9284
3973	0.9283
3964	0.9281
3955	0.9278
3946	0.9275
3937	0.9273
3928	0.9271
3919	0.9268
3910	0.9266
3901	0.9265
3892	0.9262
3883	0.9263
3874	0.9274
3865	0.9284
3856	0.9295
3847	0.9306
3838	0.9317
3829	0.9328
3820	0.934
3811	0.9351
3802	0.9364
3793	0.9375
3784	0.9387
3775	0.9396
3766	0.9402
3757	0.9409
3748	0.9416
3739	0.9423
3730	0.9428
3721	0.9436
3712	0.9442
3703	0.9449
3694	0.9454
3685	0.9456
3676	0.9458
3667	0.9458
3658	0.945
3649	0.9435
3640	0.942
3631	0.9406
3622	0.9388
3613	0.9363
3604	0.9338
3595	0.9312
3586	0.929
3577	0.9268
3568	0.9247
3559	0.923
3550	0.9225
3541	0.9224
3532	0.9223
3523	0.9221
3514	0.9217
3505	0.921
3496	0.9203
3487	0.9196
3478	0.9189
3469	0.9182
3460	0.9175
3451	0.9168
3442	0.916
3433	0.9153
3424	0.9143
3415	0.9128
3406	0.9116
3397	0.9101
3388	0.9087
3379	0.9073
3370	0.9052
3361	0.9028
3352	0.9009
3343	0.8994
3334	0.8984
3325	0.8975
3316	0.8975
3307	0.8975
3298	0.8975
3289	0.8975
3280	0.8977
3271	0.8977
3262	0.8955
3253	0.8914
3244	0.8868
3235	0.8811
3226	0.8751
3217	0.8694
3208	0.8638
3199	0.8582
3190	0.8528
3181	0.8474
3172	0.8427
3163	0.8411
3154	0.8416
3145	0.8421
3136	0.8436
3127	0.8449
3118	0.8451
3109	0.845
3100	0.8445
3091	0.8421
3082	0.8396
3073	0.8343
3064	0.8289
3055	0.8217
3046	0.8121
3037	0.7958
3028	0.7743
3019	0.75
3010	0.623
3001	0.5521
2992	0.4806
2983	0.4088
2974	0.3209
2965	0.1601
2956	0.057
2947	0.0779
2938	0.1095
2929	0.1413
2920	0.1733
2911	0.2055
2902	0.2378
2893	0.2704
2884	0.3032
2875	0.3279
2866	0.3149
2857	0.2963
2848	0.365
2839	0.491
2830	0.6176
2821	0.6851
2812	0.761
2803	0.7867
2794	0.814
2785	0.8288
2776	0.8365
2767	0.8397
2758	0.8412
2749	0.8423
2740	0.843
2731	0.8432
2722	0.8435
2713	0.8547
2704	0.8665
2695	0.8771
2686	0.8821
2677	0.8839
2668	0.8815
2659	0.8755
2650	0.8734
2641	0.8718
2632	0.8704
2623	0.8689
2614	0.8675
2605	0.8657
2596	0.8639
2587	0.8621
2578	0.8612
2569	0.8686
2560	0.8774
2551	0.8828
2542	0.888
2533	0.8923
2524	0.8959
2515	0.8981
2506	0.8971
2497	0.893
2488	0.8868
2479	0.8811
2470	0.8792
2461	0.8814
2452	0.8832
2443	0.8849
2434	0.8866
2425	0.8874
2416	0.8883
2407	0.8885
2398	0.8871
2389	0.8808
2380	0.8745
2371	0.8694
2362	0.8664
2353	0.8681
2344	0.872
2335	0.8771
2326	0.8828
2317	0.8891
2308	0.8939
2299	0.8961
2290	0.8954
2281	0.8915
2272	0.8855
2263	0.8821
2254	0.8821
2245	0.8853
2236	0.8882
2227	0.8852
2218	0.8774
2209	0.8751
2200	0.874
2191	0.8728
2182	0.8716
2173	0.8728
2164	0.8802
2155	0.8855
2146	0.8868
2137	0.8851
2128	0.8832
2119	0.8828
2110	0.8834
2101	0.8841
2092	0.8849
2083	0.8856
2074	0.8862
2065	0.8868
2056	0.8875
2047	0.8881
2038	0.8884
2029	0.8885
2020	0.8884
2011	0.8867
2002	0.8836
1993	0.8775
1984	0.8744
1975	0.8744
1966	0.8762
1957	0.8791
1948	0.8815
1939	0.8838
1930	0.8837
1921	0.8827
1912	0.8816
1903	0.8804
1894	0.879
1885	0.8777
1876	0.8763
1867	0.8745
1858	0.8718
1849	0.8684
1840	0.8637
1831	0.8628
1822	0.8632
1813	0.8639
1804	0.8646
1795	0.8647
1786	0.8648
1777	0.8649
1768	0.8651
1759	0.8642
1750	0.8632
1741	0.8611
1732	0.8474
1723	0.8361
1714	0.8398
1705	0.8455
1696	0.8448
1687	0.8384
1678	0.8345
1669	0.8323
1660	0.8311
1651	0.8309
1642	0.8318
1633	0.8343
1624	0.8371
1615	0.8342
1606	0.8303
1597	0.8275
1588	0.8253
1579	0.8241
1570	0.8225
1561	0.8214
1552	0.8202
1543	0.8192
1534	0.8101
1525	0.8076
1516	0.79
1507	0.7643
1498	0.7112
1489	0.5308
1480	0.263
1471	0.1673
1462	0.3384
1453	0.4589
1444	0.5926
1435	0.4773
1426	0.6069
1417	0.7046
1408	0.7068
1399	0.6172
1390	0.2382
1381	0.4602
1372	0.3185
1363	0.7276
1354	0.7503
1345	0.6945
1336	0.7271
1327	0.6924
1318	0.3334
1309	0.4296
1300	0.6994
1291	0.7637
1282	0.776
1273	0.7771
1264	0.7901
1255	0.7785
1246	0.7668
1237	0.7584
1228	0.7248
1219	0.6317
1210	0.334
1201	0.0541
1192	0.0449
1183	0.3638
1174	0.5292
1165	0.5987
1156	0.709
1147	0.7089
1138	0.7336
1129	0.7631
1120	0.7615
1111	0.6897
1102	0.7011
1093	0.7739
1084	0.7928
1075	0.7978
1066	0.7925
1057	0.785
1048	0.7533
1039	0.6155
1030	0.7648
1021	0.8038
1012	0.8185
1003	0.8214
994	0.8259
985	0.8261
976	0.8158
967	0.7165
958	0.7057
949	0.7207
940	0.5341
931	0.7228
922	0.5631
913	0.7554
904	0.8025
895	0.8028
886	0.8037
877	0.808
868	0.8099
859	0.806
850	0.7983
841	0.7688
832	0.6739
823	0.7241
814	0.6665
805	0.7351
796	0.6531
787	0.5278
778	0.7303
769	0.7661
760	0.7791
751	0.7928
742	0.8064
733	0.8103
724	0.8146
715	0.8153
706	0.8146
697	0.8138
688	0.8108
679	0.8057
670	0.7892
661	0.7803
652	0.7668
643	0.7591
634	0.7465
625	0.7321
