Infrared Spectrum: Isopropyl isothiocyanate
Formula: C 4 H 7 N S
CAS: 2253-73-8
State: gas
Origin: EPA-IR VAPOR PHASE LIBRARY
1/CM	ABSORBANCE
549.9	0.03154
559.547	0.02913
569.193	0.02329
578.84	0.01438
588.486	0.00842
598.133	0.00564
607.779	0.0048027
617.426	0.0048067
627.072	0.0048224
636.719	0.0047009
646.365	0.0046982
656.012	0.003935
665.658	0.00263
675.305	0.00152
684.951	0.00108
694.598	0.00116
704.245	0.00142
713.891	0.00145
723.538	0.00143
733.184	0.00124
742.831	0.00091
752.477	0.00071
762.124	0.00045
771.77	0.00035
781.417	0.00045
791.063	0.00045
800.71	0.00039
810.356	0.00038
820.003	0.00049
829.649	0.00073
839.296	0.00188
848.943	0.00774
858.589	0.01269
868.236	0.01316
877.882	0.00649
887.529	0.003819
897.175	0.00301
906.822	0.00241
916.468	0.00222
926.115	0.00225
935.761	0.0024
945.408	0.00264
955.054	0.00282
964.701	0.00311
974.347	0.003692
983.994	0.0049543
993.64	0.00865
1003.29	0.01703
1012.93	0.02037
1022.58	0.0174
1032.23	0.00846
1041.87	0.00552
1051.52	0.0050554
1061.17	0.0046599
1070.81	0.0041819
1080.46	0.0045905
1090.11	0.00592
1099.75	0.00827
1109.4	0.01214
1119.05	0.01829
1128.69	0.0257
1138.34	0.02866
1147.99	0.02478
1157.63	0.02937
1167.28	0.03869
1176.92	0.03088
1186.57	0.01543
1196.22	0.0063
1205.86	0.003738
1215.51	0.00261
1225.16	0.00244
1234.8	0.00247
1244.45	0.00294
1254.1	0.003759
1263.74	0.0050194
1273.39	0.0071
1283.04	0.01028
1292.68	0.01506
1302.33	0.0245
1311.98	0.04631
1321.62	0.09267
1331.27	0.12598
1340.92	0.09609
1350.56	0.05359
1360.21	0.02551
1369.86	0.02031
1379.5	0.02376
1389.15	0.02668
1398.79	0.02179
1408.44	0.01257
1418.09	0.00878
1427.73	0.00851
1437.38	0.00972
1447.03	0.011
1456.67	0.01243
1466.32	0.01228
1475.97	0.00945
1485.61	0.00678
1495.26	0.004753
1504.91	0.003832
1514.55	0.003533
1524.2	0.003305
1533.85	0.00309
1543.49	0.00283
1553.14	0.00265
1562.79	0.00264
1572.43	0.00269
1582.08	0.0028
1591.73	0.00289
1601.37	0.00283
1611.02	0.00273
1620.67	0.00263
1630.31	0.00259
1639.96	0.00264
1649.6	0.00266
1659.25	0.00285
1668.9	0.00294
1678.54	0.00298
1688.19	0.003
1697.84	0.00307
1707.48	0.00324
1717.13	0.003355
1726.78	0.00316
1736.42	0.00297
1746.07	0.00276
1755.72	0.00279
1765.36	0.00297
1775.01	0.00316
1784.66	0.003436
1794.3	0.003728
1803.95	0.003953
1813.6	0.0041569
1823.24	0.00433288
1832.89	0.0046512
1842.54	0.00528
1852.18	0.00648
1861.83	0.00813
1871.47	0.00963
1881.12	0.01053
1890.77	0.01152
1900.41	0.01394
1910.06	0.01778
1919.71	0.02288
1929.35	0.02959
1939	0.03866
1948.65	0.05135
1958.29	0.06924
1967.94	0.09379
1977.59	0.12622
1987.23	0.16674
1996.88	0.21197
2006.53	0.25706
2016.17	0.30045
2025.82	0.34869
2035.47	0.40947
2045.11	0.48513
2054.76	0.56245
2064.41	0.60773
2074.05	0.50899
2083.7	0.35391
2093.35	0.22218
2102.99	0.15104
2112.64	0.11244
2122.28	0.08768
2131.93	0.07755
2141.58	0.09076
2151.22	0.1284
2160.87	0.14472
2170.52	0.12328
2180.16	0.08386
2189.81	0.05236
2199.46	0.0331
2209.1	0.02184
2218.75	0.01665
2228.4	0.01422
2238.04	0.01307
2247.69	0.01252
2257.34	0.01184
2266.98	0.01092
2276.63	0.00953
2286.28	0.00797
2295.92	0.00673
2305.57	0.00601
2315.22	0.00532
2324.86	0.0045114
2334.51	0.003827
2344.16	0.00335
2353.8	0.00308
2363.45	0.00294
2373.09	0.00314
2382.74	0.003376
2392.39	0.003564
2402.03	0.003578
2411.68	0.00324
2421.33	0.00284
2430.97	0.00253
2440.62	0.00243
2450.27	0.00239
2459.91	0.00249
2469.56	0.0026
2479.21	0.00286
2488.85	0.00323
2498.5	0.003407
2508.15	0.003571
2517.79	0.003497
2527.44	0.003379
2537.09	0.00311
2546.73	0.00308
2556.38	0.00308
2566.03	0.00316
2575.67	0.003422
2585.32	0.003789
2594.96	0.004012
2604.61	0.0041584
2614.26	0.0041508
2623.9	0.004074
2633.55	0.003727
2643.2	0.003545
2652.84	0.003557
2662.49	0.003988
2672.14	0.0045474
2681.78	0.00547
2691.43	0.00659
2701.08	0.00825
2710.72	0.01052
2720.37	0.01214
2730.02	0.01142
2739.66	0.00837
2749.31	0.00545
2758.96	0.003946
2768.6	0.00317
2778.25	0.00271
2787.9	0.00238
2797.54	0.00229
2807.19	0.00248
2816.84	0.0026
2826.48	0.0027
2836.13	0.00255
2845.77	0.0027
2855.42	0.00352
2865.07	0.00575
2874.71	0.01027
2884.36	0.01337
2894.01	0.01551
2903.65	0.01836
2913.3	0.02629
2922.95	0.03422
2932.59	0.03752
2942.24	0.03734
2951.89	0.03455
2961.53	0.03177
2971.18	0.04691
2980.83	0.09032
2990.47	0.09568
3000.12	0.06353
3009.77	0.02518
3019.41	0.01149
3029.06	0.00627
3038.71	0.0045749
3048.35	0.00304
3058	0.00172
3067.64	0.00105
3077.29	0.00064
3086.94	0.0005
3096.58	0.00045
3106.23	0.0005
3115.88	0.00042
3125.52	0.00027
3135.17	8e-05
3144.82	0.00019
3154.46	0.00018
3164.11	0.00031
3173.76	0.0006
3183.4	0.00077
3193.05	0.00084
3202.7	0.00105
3212.34	0.00103
3221.99	0.00105
3231.64	0.00079
3241.28	0.00075
3250.93	0.0005
3260.58	0.00028
3270.22	0.00015
3279.87	0
3289.52	0.00026
3299.16	0.00017
3308.81	0.00039
3318.45	0.00047
3328.1	0.00066
3337.75	0.00066
3347.39	0.00069
3357.04	0.0006
3366.69	0.0006
3376.33	0.00076
3385.98	0.00082
3395.63	0.00073
3405.27	0.00093
3414.92	0.00084
3424.57	0.00095
3434.21	0.00114
3443.86	0.00107
3453.51	0.00109
3463.15	0.00098
3472.8	0.00109
3482.45	0.00114
3492.09	0.00129
3501.74	0.00123
3511.39	0.0014
3521.03	0.00134
3530.68	0.00145
3540.33	0.00158
3549.97	0.00151
3559.62	0.00162
3569.26	0.00174
3578.91	0.00173
3588.56	0.0018
3598.2	0.00172
3607.85	0.00175
3617.5	0.0017
3627.14	0.00179
3636.79	0.00193
3646.44	0.00185
3656.08	0.00193
3665.73	0.00193
3675.38	0.00186
3685.02	0.00199
3694.67	0.00195
3704.32	0.00203
3713.96	0.00208
3723.61	0.00205
3733.26	0.00222
3742.9	0.00211
3752.55	0.00224
3762.2	0.00213
3771.84	0.00214
3781.49	0.00223
3791.13	0.00241
3800.78	0.00233
3810.43	0.00234
3820.07	0.00254
3829.72	0.00264
3839.37	0.0025
3849.01	0.00259
3858.66	0.00268
3868.31	0.0028
3877.95	0.00291
3887.6	0.00297
3897.25	0.00308
3906.89	0.00305
3916.54	0.00312
3926.19	0.003326
3935.83	0.003302
3945.48	0.003502
3955.13	0.003457
3964.77	0.003688
3974.42	0.003698
3984.07	0.003989
3993.71	0.0041413
