Infrared Spectrum: 3-Pentanol
Formula: C 5 H 12 O
CAS: 584-02-1
State: gas
Origin: Sadtler Research Labs Under US-EPA Contract
1/CM	ABSORBANCE
450	0.00794263
462	0.0178989
474	0.032218
486	0.0354622
498	0.0340079
510	0.044076
522	0.00178989
534	0.0107393
546	0.005929
558	0.0195769
570	0.0260652
582	0.0167802
594	0.0240516
606	0.0178989
618	0.0121936
630	0.0174514
642	0.0132004
654	0.0143191
666	0.015214
678	0.0119699
690	0.0105156
702	0.0134242
714	0.00962065
726	0.0138716
738	0.0126411
750	0.0187938
762	0.0196888
774	0.0102919
786	0.0172277
798	0.0153259
810	0.0158853
822	0.0171158
834	0.0259534
846	0.0323299
858	0.042398
870	0.0352384
882	0.0321061
894	0.0437404
906	0.0750634
918	0.109519
930	0.134242
942	0.196664
954	0.332472
966	0.419617
978	0.340414
990	0.187491
1002	0.100569
1014	0.107617
1026	0.142967
1038	0.167578
1050	0.149008
1062	0.122048
1074	0.133906
1086	0.150462
1098	0.153707
1110	0.165005
1122	0.18984
1134	0.201139
1146	0.176416
1158	0.120482
1170	0.0761821
1182	0.0634292
1194	0.0743922
1206	0.110526
1218	0.157846
1230	0.175968
1242	0.156391
1254	0.120034
1266	0.0963183
1278	0.0917318
1290	0.0922911
1302	0.0912843
1314	0.0799856
1326	0.0685751
1338	0.0702531
1350	0.0916199
1362	0.127865
1374	0.17306
1386	0.189169
1398	0.159971
1410	0.0984438
1422	0.0619749
1434	0.0727142
1446	0.128201
1458	0.197894
1470	0.200579
1482	0.132564
1494	0.05929
1506	0.0271839
1518	0.0173395
1530	0.0136479
1542	0.013536
1554	0.0133123
1566	0.0140954
1578	0.012753
1590	0.0108512
1602	0.00962065
1614	0.00939691
1626	0.0080545
1638	0.00894944
1650	0.00827823
1662	0.00771889
1674	0.00783076
1686	0.00469846
1698	0.00458659
1710	0.0052578
1722	0.00615274
1734	0.00492219
1746	0.0052578
1758	0.00324417
1770	0.00369164
1782	0.00302044
1794	0.00335604
1806	0.00425098
1818	0.00380351
1830	0.00380351
1842	0.0027967
1854	0.0031323
1866	0.00302044
1878	0.00391538
1890	0.00391538
1902	0.00615274
1914	0.00458659
1926	0.0052578
1938	0.00492219
1950	0.00380351
1962	0.00369164
1974	0.00335604
1986	0.0031323
1998	0.00324417
2010	0.00346791
2022	0.00201362
2034	0.00380351
2046	0.00234923
2058	0.00324417
2070	0.0031323
2082	0.00290857
2094	0.00234923
2106	0.0027967
2118	0.00201362
2130	0.0027967
2142	0.00346791
2154	0.00335604
2166	0.00469846
2178	0.00290857
2190	0.00346791
2202	0.00346791
2214	0.00391538
2226	0.00357978
2238	0.00413912
2250	0.00302044
2262	0.00335604
2274	0.0027967
2286	0.00257296
2298	0.00402725
2310	0.00223736
2322	0.00257296
2334	0.00156615
2346	0.000783076
2358	0.000894944
2370	0.00257296
2382	0.00156615
2394	0.00581714
2406	0.00693582
2418	0.00637648
2430	0.00615274
2442	0.00469846
2454	0.00402725
2466	0.00413912
2478	0.00436285
2490	0.00335604
2502	0.0031323
2514	0.00100681
2526	0.0027967
2538	0.0024611
2550	0.00380351
2562	0.00536966
2574	0.00704768
2586	0.00906131
2598	0.0112987
2610	0.0133123
2622	0.0137598
2634	0.0142072
2646	0.013536
2658	0.0158853
2670	0.0158853
2682	0.0176751
2694	0.019465
2706	0.0210312
2718	0.0218143
2730	0.0256178
2742	0.0300925
2754	0.0344553
2766	0.0346791
2778	0.0356859
2790	0.0404962
2802	0.0437404
2814	0.0521305
2826	0.0731617
2838	0.126299
2850	0.224631
2862	0.350371
2874	0.466601
2886	0.537526
2898	0.499602
2910	0.454632
2922	0.623552
2934	0.869662
2946	0.901432
2958	0.879842
2970	1.11387
2982	0.941593
2994	0.464923
3006	0.148225
3018	0.0654428
3030	0.0435167
3042	0.038147
3054	0.035574
3066	0.0359096
3078	0.0354622
3090	0.0312112
3102	0.0255059
3114	0.0189057
3126	0.0174514
3138	0.0143191
3150	0.0166683
3162	0.0156615
3174	0.0172277
3186	0.0145428
3198	0.0109631
3210	0.00704768
3222	0.00536966
3234	0.00234923
3246	0.00369164
3258	0.0031323
3270	0.00290857
3282	0.00481032
3294	0.00123055
3306	0.00324417
3318	0.00234923
3330	0.00425098
3342	0.00223736
3354	0.00536966
3366	0.00234923
3378	0.00413912
3390	0.00447472
3402	0.00458659
3414	0.00682395
3426	0.00581714
3438	0.005929
3450	0.00503406
3462	0.00548153
3474	0.00391538
3486	0.00615274
3498	0.00212549
3510	0.00324417
3522	0.00290857
3534	0.00357978
3546	0.00391538
3558	0.00413912
3570	0.00391538
3582	0.00302044
3594	0.00715955
3606	0.0080545
3618	0.0178989
3630	0.0317705
3642	0.0664496
3654	0.0984438
3666	0.0986676
3678	0.0523542
3690	0.0190176
3702	0.00906131
3714	0.00615274
3726	0.00458659
3738	0.00257296
3750	0.00615274
3762	0.00324417
3774	0.00436285
3786	0.00212549
3798	0.00514593
3810	0.00190176
3822	0.00615274
3834	0.00536966
3846	0.00771889
3858	0.0024611
3870	0.00648834
3882	0.00637648
3894	0.00514593
3906	0.00402725
3918	0.00402725
3930	0.00357978
3942	0.00268483
3954	0.00469846
3966	0.00100681
