Infrared Spectrum: Alpha-CHLORO ACETAMIDE
Formula: C2 H4 Cl N O
CAS: 79-07-2
State: SOLID (MULL)
Melting point: 118-120 C
Class: COBLENTZ
Instrument: Not specified, most likely a prism, grating, or hybrid spectrometer.
Sampling: TRANSMISSION
Resolution: 4
Origin: WYANDOTTE CHEMICALS CORP., WYANDOTTE, MICHIGAN, USA
MICROMETERS	TRANSMITTANCE
2.027	0.58
2.067	0.607
2.107	0.612
2.147	0.599
2.187	0.585
2.22699	0.577
2.26699	0.585
2.30699	0.602
2.34699	0.615
2.38699	0.623
2.42699	0.638
2.46699	0.642
2.50699	0.662
2.54699	0.672
2.58699	0.683
2.62698	0.703
2.66698	0.715
2.70698	0.728
2.74698	0.758
2.78698	0.782
2.82698	0.8
2.86698	0.78
2.90698	0.608
2.94698	0.242
2.98697	0.108
3.02697	0.271
3.06697	0.267
3.10697	0.211
3.14697	0.123
3.18697	0.181
3.22697	0.272
3.26697	0.292
3.30697	0.209
3.34697	0.034
3.38696	0.029
3.42696	0.034
3.46696	0.034
3.50696	0.071
3.54696	0.381
3.58696	0.467
3.62696	0.495
3.66696	0.54
3.70696	0.575
3.74695	0.592
3.78695	0.62
3.82695	0.635
3.86695	0.645
3.90695	0.657
3.94695	0.673
3.98695	0.685
4.02695	0.702
4.06695	0.712
4.10695	0.717
4.14694	0.722
4.18694	0.733
4.22694	0.737
4.26694	0.732
4.30694	0.737
4.34694	0.752
4.38694	0.767
4.42694	0.77
4.46694	0.772
4.50693	0.783
4.54693	0.805
4.58693	0.801
4.62693	0.801
4.66693	0.828
4.70693	0.835
4.74693	0.853
4.78693	0.861
4.82693	0.873
4.86693	0.883
4.90692	0.891
4.94692	0.891
4.98692	0.893
5.02692	0.905
5.06692	0.881
5.10692	0.901
5.14692	0.92
5.18692	0.93
5.22692	0.935
5.26691	0.945
5.30691	0.956
5.34691	0.955
5.38691	0.938
5.42691	0.926
5.46691	0.92
5.50691	0.896
5.54691	0.855
5.58691	0.806
5.62691	0.72
5.6669	0.692
5.7069	0.652
5.7469	0.59
5.7869	0.447
5.8269	0.376
5.8669	0.349
5.9069	0.279
5.9469	0.188
5.9869	0.086
6.02689	0.073
6.06689	0.053
6.10689	0.089
6.14689	0.078
6.18689	0.123
6.22689	0.196
6.26689	0.261
6.30689	0.301
6.34689	0.331
6.38689	0.364
6.42688	0.382
6.46688	0.409
6.50688	0.425
6.54688	0.44
6.58688	0.445
6.62688	0.435
6.66688	0.414
6.70688	0.361
6.74688	0.237
6.78688	0.071
6.82687	0.079
6.86687	0.099
6.90687	0.133
6.94687	0.144
6.98687	0.169
7.02687	0.232
7.06687	0.143
7.10687	0.101
7.14687	0.188
7.18686	0.201
7.22686	0.129
7.26686	0.156
7.30686	0.251
7.34686	0.352
7.38686	0.382
7.42686	0.405
7.46686	0.425
7.50686	0.409
7.54686	0.414
7.58685	0.384
7.62685	0.386
7.66685	0.389
7.70685	0.424
7.74685	0.452
7.78685	0.494
7.82685	0.525
7.86685	0.284
7.90685	0.126
7.94684	0.304
7.98684	0.392
8.02684	0.449
8.06684	0.47
8.10684	0.492
8.14684	0.5
8.18684	0.505
8.22684	0.507
8.26684	0.52
8.30684	0.529
8.34683	0.549
8.38683	0.562
8.42683	0.547
8.46683	0.392
8.50683	0.377
8.54683	0.469
8.58683	0.504
8.62683	0.522
8.66683	0.552
8.70682	0.58
8.74682	0.615
8.78682	0.64
8.82682	0.64
8.86682	0.628
8.90682	0.607
8.94682	0.56
8.98682	0.422
9.02682	0.259
9.06682	0.181
9.10681	0.291
9.14681	0.359
9.18681	0.424
9.22681	0.455
9.26681	0.479
9.30681	0.49
9.34681	0.495
9.38681	0.505
9.42681	0.535
9.4668	0.547
9.5068	0.555
9.5468	0.56
9.5868	0.567
9.6268	0.57
9.6668	0.575
9.7068	0.585
9.7468	0.59
9.7868	0.594
9.8268	0.605
9.86679	0.61
9.90679	0.612
9.94679	0.615
9.98679	0.62
10.0268	0.625
10.0668	0.628
10.1068	0.628
10.1468	0.623
10.1868	0.618
10.2268	0.61
10.2668	0.61
10.3068	0.615
10.3468	0.618
10.3868	0.615
10.4268	0.617
10.4668	0.623
10.5068	0.622
10.5468	0.63
10.5868	0.632
10.6268	0.633
10.6668	0.623
10.7068	0.602
10.7468	0.555
10.7868	0.565
10.8268	0.617
10.8668	0.643
10.9068	0.648
10.9468	0.653
10.9868	0.66
11.0268	0.663
11.0668	0.665
11.1068	0.663
11.1468	0.648
11.1868	0.633
11.2268	0.612
11.2668	0.643
11.3068	0.67
11.3468	0.68
11.3868	0.685
11.4268	0.688
11.4668	0.68
11.5068	0.68
11.5468	0.678
11.5867	0.673
11.6267	0.662
11.6667	0.667
11.7067	0.667
11.7467	0.667
11.7867	0.663
11.8267	0.662
11.8667	0.657
11.9067	0.658
11.9467	0.653
11.9867	0.65
12.0267	0.635
12.0667	0.625
12.1067	0.612
12.1467	0.599
12.1867	0.569
12.2267	0.53
12.2667	0.497
12.3067	0.46
12.3467	0.44
12.3867	0.442
12.4267	0.46
12.4667	0.502
12.5067	0.534
12.5467	0.562
12.5867	0.579
12.6267	0.597
12.6667	0.607
12.7067	0.592
12.7467	0.56
12.7867	0.5
12.8267	0.422
12.8667	0.322
12.9067	0.204
12.9467	0.116
12.9867	0.079
13.0267	0.078
13.0667	0.091
13.1067	0.128
13.1467	0.179
13.1867	0.239
13.2267	0.281
13.2667	0.311
13.3067	0.339
13.3467	0.354
13.3867	0.372
13.4267	0.394
13.4667	0.404
13.5067	0.414
13.5467	0.417
13.5867	0.42
13.6267	0.422
13.6667	0.43
13.7067	0.435
13.7467	0.434
13.7867	0.43
13.8267	0.425
13.8667	0.429
13.9067	0.429
13.9467	0.447
13.9867	0.457
14.0267	0.46
14.0667	0.469
14.1067	0.472
14.1467	0.472
14.1867	0.472
14.2267	0.47
14.2667	0.465
14.3067	0.459
14.3467	0.457
14.3867	0.442
14.4267	0.437
14.4667	0.429
14.5067	0.415
14.5467	0.4
14.5867	0.389
14.6267	0.371
14.6667	0.369
14.7067	0.354
14.7467	0.346
14.7867	0.339
14.8267	0.327
14.8667	0.317
14.9067	0.311
14.9467	0.304
14.9867	0.306
15.0267	0.312
15.0667	0.317
15.1067	0.309
15.1467	0.299
15.1867	0.286
15.2267	0.284
15.2667	0.292
15.3067	0.297
15.3467	0.301
15.3866	0.307
15.4266	0.311
15.4666	0.324
15.5066	0.327
15.5466	0.331
15.5866	0.341
15.6266	0.357
15.6666	0.367
15.7066	0.376
15.7466	0.382
15.7866	0.404
15.8266	0.41
15.8666	0.424
15.9066	0.435
15.9466	0.437
15.9866	0.44
