Infrared Spectrum: 1,2-Propanediol, 3-chloro-
Formula: C 3 H 7 Cl O 2
CAS: 96-24-2
State: gas
Origin: Sadtler Research Labs Under US-EPA Contract
1/CM	ABSORBANCE
450	0.0988639
462	0.0842694
474	0.0938119
486	0.0455377
498	0.0614654
510	0.0611848
522	0.0514317
534	0.0541682
546	0.0374686
558	0.0232249
570	0.0287681
582	0.0420294
594	0.0439941
606	0.0758494
618	0.0905843
630	0.111073
642	0.047783
654	0.0506599
666	0.0145945
678	0.0214006
690	0.0445554
702	0.0520632
714	0.0602726
726	0.0517825
738	0.115634
750	0.201096
762	0.225233
774	0.170293
786	0.0674997
798	0.0326974
810	0.0649036
822	0.0706572
834	0.0884092
846	0.0694643
858	0.0658157
870	0.0644124
882	0.0674295
894	0.107915
906	0.11823
918	0.106512
930	0.10146
942	0.10146
954	0.0849009
966	0.0747268
978	0.0714992
990	0.107985
1002	0.16896
1014	0.284383
1026	0.429135
1038	0.564064
1050	0.665454
1062	0.70166
1074	0.634301
1086	0.507721
1098	0.424083
1110	0.310064
1122	0.195763
1134	0.137876
1146	0.144121
1158	0.163978
1170	0.196535
1182	0.183414
1194	0.176327
1206	0.163627
1218	0.167416
1230	0.185098
1242	0.206358
1254	0.252738
1266	0.277717
1278	0.231688
1290	0.178292
1302	0.145033
1314	0.122299
1326	0.134368
1338	0.144402
1350	0.16896
1362	0.180397
1374	0.222777
1386	0.235968
1398	0.199763
1410	0.145524
1422	0.108757
1434	0.130509
1446	0.133877
1458	0.0953556
1470	0.0773229
1482	0.0458886
1494	0.0223128
1506	0.0218216
1518	0.0072271
1530	0.0155067
1542	0.0035083
1554	0.00891108
1566	0.00631494
1578	0.00399946
1590	0.00491162
1602	0.00526245
1614	0.00863042
1626	0.00378896
1638	0.00189448
1650	0.00610444
1662	0.00512212
1674	0.000982324
1686	0.00575361
1698	0.000912158
1710	0.0124895
1722	0.0140332
1734	0.0192957
1746	0.032557
1758	0.037188
1770	0.0252598
1782	0.0123492
1794	0.00687627
1806	0.00575361
1818	0.00554311
1830	0.00420996
1842	0.00547295
1854	0.00442046
1866	0.00764809
1878	0.00343813
1890	0.0070166
1902	0.00519228
1914	0.0030873
1926	0.00799892
1938	0.00687627
1950	0.0070166
1962	0.00813926
1974	0.00694643
1986	0.00617461
1998	0.00533262
2010	0.00526245
2022	0.00420996
2034	0.00491162
2046	0.0072271
2058	0.00484145
2070	0.00996357
2082	0.0105249
2094	0.00891108
2106	0.0119282
2118	0.00982324
2130	0.00729726
2142	0.0074376
2154	0.00364863
2166	0.00575361
2178	0.00575361
2190	0.00505195
2202	0.0072271
2214	0.00561328
2226	0.00666577
2238	0.0039293
2250	0.00603428
2262	0.00484145
2274	0.00498179
2286	0.00750776
2298	0.00561328
2310	0.00638511
2322	0.0134719
2334	0.00294697
2346	0.000561328
2358	0.0193658
2370	0
2382	0.00708677
2394	0.00603428
2406	0.00575361
2418	0.00512212
2430	0.00729726
2442	0.00813926
2454	0.00547295
2466	0.00834975
2478	0.0065956
2490	0.00428013
2502	0.00596411
2514	0.00420996
2526	0.00561328
2538	0.00687627
2550	0.00399946
2562	0.00792876
2574	0.00498179
2586	0.00449062
2598	0.00736743
2610	0.0035083
2622	0.00652544
2634	0.00750776
2646	0.00856025
2658	0.00877075
2670	0.0110862
2682	0.0147349
2694	0.0121387
2706	0.0166995
2718	0.0168398
2730	0.0145244
2742	0.0187343
2754	0.0202078
2766	0.0183133
2778	0.0254001
2790	0.0229443
2802	0.0272244
2814	0.0292592
2826	0.0306625
2838	0.0408366
2850	0.052835
2862	0.0884092
2874	0.145033
2886	0.23239
2898	0.271613
2910	0.2239
2922	0.208253
2934	0.24495
2946	0.285155
2958	0.32129
2970	0.283821
2982	0.173591
2994	0.0864445
3006	0.0544488
3018	0.0524842
3030	0.032136
3042	0.0181028
3054	0.0103144
3066	0.0108056
3078	0.00827959
3090	0.00652544
3102	0.0102442
3114	0.00891108
3126	0.00624477
3138	0.0109459
3150	0.00736743
3162	0.00603428
3174	0.00982324
3186	0.00364863
3198	0.00926191
3210	0.0072271
3222	0.00708677
3234	0.0101039
3246	0.00954258
3258	0.0121387
3270	0.0120686
3282	0.0113669
3294	0.0127702
3306	0.0108056
3318	0.0145945
3330	0.00926191
3342	0.0147349
3354	0.0179625
3366	0.0105249
3378	0.0195763
3390	0.0146647
3402	0.013963
3414	0.0174713
3426	0.0170503
3438	0.0144542
3450	0.0212603
3462	0.0176818
3474	0.021962
3486	0.0204183
3498	0.0279261
3510	0.0243476
3522	0.0264526
3534	0.0315045
3546	0.0237161
3558	0.0333289
3570	0.0361355
3582	0.0658157
3594	0.121247
3606	0.199622
3618	0.297223
3630	0.330061
3642	0.234284
3654	0.15654
3666	0.143419
3678	0.133315
3690	0.109459
3702	0.0613953
3714	0.0393631
3726	0.0275051
3738	0.0291189
3750	0.0205586
3762	0.0199973
3774	0.0185238
3786	0.0146647
3798	0.0127702
3810	0.0171907
3822	0.0109459
3834	0.0141034
3846	0.018173
3858	0.00870058
3870	0.01691
3882	0.00898125
3894	0.0106652
3906	0.00954258
3918	0.0150857
3930	0.0193658
3942	0.0218216
3954	0.00442046
3966	0.00624477
