Infrared Spectrum: 2H-Thiopyran, tetrahydro-
Formula: C 5 H 10 S
CAS: 1613-51-0
State: gas
Origin: Sadtler Research Labs Under US-EPA Contract
1/CM	ABSORBANCE
450	0.0188524
462	0.0141081
474	0.0092389
486	0.0168547
498	0.011611
510	0.0059928
522	0.0133589
534	0.0159808
546	0.0067419
558	0.0164802
570	0.00936375
582	0.00861465
594	0.0082401
606	0.0082401
618	0.0103625
630	0.0163554
642	0.0161056
654	0.0280912
666	0.0287155
678	0.0148571
690	0.0123602
702	0.0097383
714	0.0069916
726	0.0109868
738	0.00961345
750	0.00836495
762	0.0089892
774	0.0077407
786	0.00836495
798	0.015856
810	0.0252197
822	0.034084
834	0.0284658
846	0.0159808
858	0.0114862
870	0.012485
882	0.0162305
894	0.0269676
906	0.0282161
918	0.0232221
930	0.0173541
942	0.0206003
954	0.0416999
966	0.0679184
978	0.0385786
990	0.0127347
1002	0.0128595
1014	0.0148571
1026	0.0141081
1038	0.0139832
1050	0.0162305
1062	0.0252197
1074	0.0187275
1086	0.0196014
1098	0.019102
1110	0.015856
1122	0.0087395
1134	0.00786555
1146	0.0077407
1158	0.00736615
1170	0.00786555
1182	0.00861465
1194	0.0139832
1206	0.0378295
1218	0.0471933
1230	0.0379544
1242	0.0327107
1254	0.0595535
1266	0.114612
1278	0.11224
1290	0.0632989
1302	0.0270925
1314	0.0240961
1326	0.0169796
1338	0.0154814
1350	0.014982
1362	0.0114862
1374	0.00886435
1386	0.00911405
1398	0.0113613
1410	0.0250948
1422	0.0764082
1434	0.147198
1446	0.233969
1458	0.0993806
1470	0.042449
1482	0.0139832
1494	0.00886435
1506	0.0059928
1518	0.0062425
1530	0.0062425
1542	0.0054934
1554	0.0057431
1566	0.00586795
1578	0.0062425
1590	0.0062425
1602	0.0059928
1614	0.00561825
1626	0.0059928
1638	0.0057431
1650	0.0054934
1662	0.0057431
1674	0.0047443
1686	0.0059928
1698	0.0062425
1710	0.0054934
1722	0.00586795
1734	0.0059928
1746	0.00561825
1758	0.0059928
1770	0.0054934
1782	0.004994
1794	0.0052437
1806	0.00511885
1818	0.00511885
1830	0.00461945
1842	0.0047443
1854	0.004994
1866	0.0057431
1878	0.00461945
1890	0.0047443
1902	0.0057431
1914	0.00536855
1926	0.004994
1938	0.0057431
1950	0.00536855
1962	0.00586795
1974	0.00536855
1986	0.00436975
1998	0.00387035
2010	0.00287155
2022	0.00212245
2034	0.00262185
2046	0.00337095
2058	0.0022473
2070	0.00461945
2082	0.0064922
2094	0.00561825
2106	0.0044946
2118	0.00436975
2130	0.00461945
2142	0.0054934
2154	0.0057431
2166	0.00586795
2178	0.004994
2190	0.00412005
2202	0.00461945
2214	0.0054934
2226	0.0054934
2238	0.0052437
2250	0.00536855
2262	0.00511885
2274	0.0044946
2286	0.0029964
2298	0.0014982
2310	0.002497
2322	0.0052437
2334	0.00536855
2346	0.00362065
2358	0.007491
2370	0.00062425
2382	0.00062425
2394	0.00212245
2406	0.002497
2418	0.0034958
2430	0.00287155
2442	0.00337095
2454	0.0034958
2466	0.00237215
2478	0.002497
2490	0.00212245
2502	0.00237215
2514	0.00212245
2526	0.0019976
2538	0.0012485
2550	0.0009988
2562	0.00137335
2574	0.00212245
2586	0.00312125
2598	0.0017479
2610	0.00137335
2622	0.002497
2634	0.0027467
2646	0.0032461
2658	0.00911405
2670	0.0204754
2682	0.0228476
2694	0.0131092
2706	0.00761585
2718	0.0054934
2730	0.00461945
2742	0.00511885
2754	0.0057431
2766	0.0079904
2778	0.0102377
2790	0.0129844
2802	0.0148571
2814	0.0279664
2826	0.0687924
2838	0.153316
2850	0.265181
2862	0.309129
2874	0.234468
2886	0.190396
2898	0.272672
2910	0.556082
2922	0.829129
2934	1.12577
2946	0.875573
2958	0.605647
2970	0.236341
2982	0.0536855
2994	0.00986315
3006	0.00436975
3018	0.00387035
3030	0.00387035
3042	0.00262185
3054	0.002497
3066	0.0034958
3078	0.0027467
3090	0.00337095
3102	0.0039952
3114	0.00461945
3126	0.004994
3138	0.00661705
3150	0.00761585
3162	0.0059928
3174	0.0059928
3186	0.00536855
3198	0.0037455
3210	0.0052437
3222	0.00586795
3234	0.0057431
3246	0.0064922
3258	0.00736615
3270	0.0054934
3282	0.0059928
3294	0.0044946
3306	0.0057431
3318	0.00611765
3330	0.0037455
3342	0.00461945
3354	0.002497
3366	0.0037455
3378	0.00212245
3390	0.0012485
3402	0.00212245
3414	0.00536855
3426	0.00387035
3438	0.0042449
3450	0.00536855
3462	0.00287155
3474	0.00337095
3486	0.0029964
3498	0.00212245
3510	0.00212245
3522	0.00312125
3534	0.0019976
3546	0.0014982
3558	0.00212245
3570	0.00137335
3582	0.00287155
3594	0.002497
3606	0.00436975
3618	0.0042449
3630	0.0039952
3642	0.00312125
3654	0.00262185
3666	0.0027467
3678	0.00237215
3690	0.00436975
3702	0.002497
3714	0.0019976
3726	0.002497
3738	0.00461945
3750	0.00511885
3762	0.00536855
3774	0.0029964
3786	0.0034958
3798	0.00112365
3810	0.00536855
3822	0.00337095
3834	0.004994
3846	0.00312125
3858	0.0022473
3870	0.0062425
3882	0.0052437
3894	0.00187275
3906	0.004994
3918	0.0067419
3930	0.00561825
3942	0.0044946
3954	0.00536855
3966	0.00436975
