Infrared Spectrum: Cyanamide, dimethyl-
Formula: C 3 H 6 N 2
CAS: 1467-79-4
State: gas
Origin: Sadtler Research Labs Under US-EPA Contract
1/CM	ABSORBANCE
450	0
462	0.0101336
474	0.0167386
486	0.025696
498	0.0362821
510	0.0483158
522	0.0567303
534	0.0370964
546	0.0262389
558	0.0190006
570	0.0169196
582	0.0133909
594	0.0195435
606	0.0240674
618	0.0264199
630	0.0313962
642	0.0222578
654	0.0183672
666	0.0171005
678	0.0180958
690	0.0193625
702	0.017372
714	0.0162862
726	0.0202673
738	0.0286818
750	0.038906
762	0.0462348
774	0.0374583
786	0.0218054
798	0.019272
810	0.0166481
822	0.0144766
834	0.01511
846	0.0142957
858	0.0158338
870	0.017372
882	0.0144766
894	0.0167386
906	0.017372
918	0.0177339
930	0.0169196
942	0.0143862
954	0.0165577
966	0.0163767
978	0.0190911
990	0.0253341
1002	0.0405346
1014	0.0684021
1026	0.120789
1038	0.195706
1050	0.292338
1062	0.271889
1074	0.245017
1086	0.121423
1098	0.0698498
1110	0.0516635
1122	0.0493111
1134	0.0525683
1146	0.0611638
1158	0.0606209
1170	0.0563684
1182	0.0590828
1194	0.0777215
1206	0.0960887
1218	0.0990745
1230	0.0920171
1242	0.0695784
1254	0.0502158
1266	0.0400822
1278	0.0361011
1290	0.0378202
1302	0.0637877
1314	0.139066
1326	0.18141
1338	0.175801
1350	0.116356
1362	0.0684021
1374	0.049492
1386	0.0436109
1398	0.0456919
1410	0.0438823
1422	0.0635163
1434	0.0837836
1446	0.110837
1458	0.162138
1470	0.145671
1482	0.134271
1494	0.10206
1506	0.0784453
1518	0.0546493
1530	0.0427966
1542	0.0462348
1554	0.0386345
1566	0.0327534
1578	0.034382
1590	0.0286818
1602	0.0266913
1614	0.0244293
1626	0.0231626
1638	0.0230721
1650	0.0198149
1662	0.0168291
1674	0.0178244
1686	0.0228912
1698	0.0238865
1710	0.0233436
1722	0.0247912
1734	0.0283199
1746	0.0193625
1758	0.0172815
1770	0.0178244
1782	0.0137528
1794	0.0168291
1806	0.0127575
1818	0.0133004
1830	0.0140242
1842	0.0123051
1854	0.0106765
1866	0.0106765
1878	0.0100432
1890	0.0114004
1902	0.0101336
1914	0.0104956
1926	0.010767
1938	0.010586
1950	0.0108575
1962	0.0116718
1974	0.0116718
1986	0.0112194
1998	0.0110384
2010	0.0111289
2022	0.0106765
2034	0.0104956
2046	0.0104956
2058	0.010767
2070	0.010948
2082	0.0116718
2094	0.0121242
2106	0.0127575
2118	0.0122147
2130	0.0125766
2142	0.0135718
2154	0.0178244
2166	0.0252436
2178	0.0353773
2190	0.0723832
2202	0.217964
2214	0.605485
2226	0.841817
2238	0.83675
2250	0.495825
2262	0.0814311
2274	0.0370059
2286	0.0269627
2298	0.0188196
2310	0.0154719
2322	0.0152005
2334	0.0162862
2346	0.0181863
2358	0.0200863
2370	0.0195435
2382	0.0178244
2394	0.01511
2406	0.0134814
2418	0.0108575
2430	0.00940982
2442	0.0090479
2454	0.0095003
2466	0.00995269
2478	0.00913838
2490	0.00895742
2502	0.00841455
2514	0.00841455
2526	0.00877646
2538	0.00886694
2550	0.00832407
2562	0.00823359
2574	0.00769071
2586	0.00796215
2598	0.00760024
2610	0.00750976
2622	0.00741928
2634	0.00741928
2646	0.00841455
2658	0.00778119
2670	0.00678592
2682	0.00588114
2694	0.00533826
2706	0.00551922
2718	0.00624305
2730	0.00714784
2742	0.00805263
2754	0.00977173
2766	0.0126671
2778	0.0185482
2790	0.0306724
2802	0.0589018
2814	0.0988031
2826	0.107218
2838	0.118889
2850	0.104232
2862	0.126037
2874	0.150828
2886	0.17381
2898	0.219412
2910	0.256327
2922	0.267184
2934	0.277318
2946	0.274151
2958	0.272161
2970	0.238412
2982	0.173991
2994	0.140423
3006	0.112194
3018	0.0903885
3030	0.0659592
3042	0.036825
3054	0.027958
3066	0.0238865
3078	0.0205387
3090	0.0182768
3102	0.0155624
3114	0.0133909
3126	0.0116718
3138	0.0110384
3150	0.00959077
3162	0.00931934
3174	0.00778119
3186	0.00760024
3198	0.0073288
3210	0.00723832
3222	0.00669545
3234	0.00769071
3246	0.00886694
3258	0.0104956
3270	0.0137528
3282	0.0161957
3294	0.014929
3306	0.0115813
3318	0.00787167
3330	0.0073288
3342	0.00660497
3354	0.00678592
3366	0.00723832
3378	0.00705736
3390	0.00705736
3402	0.00696688
3414	0.00678592
3426	0.00606209
3438	0.0068764
3450	0.00660497
3462	0.00606209
3474	0.00551922
3486	0.00579066
3498	0.00669545
3510	0.00850503
3522	0.00931934
3534	0.0117623
3546	0.0172815
3558	0.0154719
3570	0.0186387
3582	0.0101336
3594	0.00868598
3606	0.0068764
3618	0.00959077
3630	0.012848
3642	0.00642401
3654	0.00895742
3666	0.00651449
3678	0.0110384
3690	0.00986221
3702	0.00823359
3714	0.010586
3726	0.010948
3738	0.0133909
3750	0.0113099
3762	0.00705736
3774	0.00588114
3786	0.0056097
3798	0.00651449
3810	0.00660497
3822	0.00787167
3834	0.00750976
3846	0.00696688
3858	0.00895742
3870	0.00968125
3882	0.0090479
3894	0.00922886
3906	0.00968125
3918	0.00841455
3930	0.00796215
3942	0.00796215
3954	0.0051573
3966	0.00533826
