Infrared Spectrum: FORMIC ACID, ETHYL ESTER
Formula: C3 H6 O2
CAS: 109-94-4
State: GAS (50 mmHg, N2 ADDED, TOTAL PRESSURE 600 mmHg)
Class: COBLENTZ
Instrument: DOW KBr FOREPRISM-GRATING
Instrument parameters: GRATING CHANGED AT 5.0, 7.5, 15.0 MICRON
Sampling: TRANSMISSION
Path length: 5 CM
Resolution: 2
Origin: DOW CHEMICAL COMPANY
1/CM	TRANSMITTANCE
392.206	0.92
401.559	0.92
410.912	0.919
420.265	0.916
429.618	0.908
438.971	0.882
448.325	0.86
457.678	0.854
467.031	0.879
476.384	0.926
485.737	0.969
495.09	0.995
504.443	1.002
513.796	1.004
523.149	1.005
532.502	1.011
541.856	1.01
551.209	1.013
560.562	1.013
569.915	1.01
579.268	1.01
588.621	1.008
597.974	1.001
607.327	0.989
616.68	0.986
626.033	0.989
635.387	0.95
644.74	0.989
654.093	0.997
663.446	1.005
672.799	1.013
682.152	1.02
691.505	1.024
700.858	1.026
710.211	1.026
719.564	1.019
728.918	0.998
738.271	0.964
747.624	0.961
756.977	0.963
766.33	0.988
775.683	1.005
785.036	1.008
794.389	0.998
803.742	0.972
813.095	0.944
822.449	0.886
831.802	0.8
841.155	0.763
850.508	0.775
859.861	0.832
869.214	0.911
878.567	0.963
887.92	0.988
897.273	1.001
906.626	1.014
915.98	1.022
925.333	1.02
934.686	1.023
944.039	1.024
953.392	1.023
962.745	1.016
972.098	0.997
981.451	0.942
990.804	0.837
1000.16	0.672
1009.51	0.629
1018.86	0.646
1028.22	0.728
1037.57	0.762
1046.92	0.756
1056.28	0.759
1065.63	0.744
1074.98	0.698
1084.34	0.684
1093.69	0.7
1103.04	0.679
1112.39	0.641
1121.75	0.578
1131.1	0.508
1140.45	0.2169
1149.81	0.058
1159.16	0.019
1168.51	0.005
1177.87	0.004
1187.22	0.007
1196.57	0.01
1205.93	0.035
1215.28	0.3501
1224.63	0.565
1233.98	0.6791
1243.34	0.82
1252.69	0.87
1262.04	0.886
1271.4	0.886
1280.75	0.878
1290.1	0.845
1299.46	0.75
1308.81	0.7011
1318.16	0.794
1327.52	0.9
1336.87	0.933
1346.22	0.914
1355.58	0.878
1364.93	0.844
1374.28	0.763
1383.63	0.671
1392.99	0.632
1402.34	0.665
1411.69	0.7881
1421.05	0.876
1430.4	0.864
1439.75	0.825
1449.11	0.757
1458.46	0.744
1467.81	0.748
1477.17	0.748
1486.52	0.809
1495.87	0.854
1505.22	0.916
1514.58	0.961
1523.93	0.977
1533.28	0.982
1542.64	0.986
1551.99	0.988
1561.34	0.985
1570.7	0.986
1580.05	0.991
1589.4	0.986
1598.76	0.985
1608.11	0.977
1617.46	0.961
1626.82	0.957
1636.17	0.955
1645.52	0.955
1654.87	0.951
1664.23	0.947
1673.58	0.939
1682.93	0.916
1692.29	0.894
1701.64	0.778
1710.99	0.6679
1720.35	0.3768
1729.7	0.0509
1739.05	0.002
1748.41	0.007
1757.76	0.011
1767.11	0.108
1776.46	0.3871
1785.82	0.6651
1795.17	0.8201
1804.52	0.917
1813.88	0.95
1823.23	0.963
1832.58	0.972
1841.94	0.98
1851.29	0.985
1860.64	0.989
1870	0.989
1879.35	0.989
1888.7	0.985
1898.06	0.983
1907.41	0.98
1916.76	0.976
1926.11	0.975
1935.47	0.97
1944.82	0.972
1954.17	0.969
1963.53	0.963
1972.88	0.945
1982.23	0.935
1991.59	0.926
2000.94	0.927
2010.29	0.9225
2019.65	0.9165
2029	0.9036
2038.35	0.902
2047.7	0.9228
2057.06	0.9755
2066.41	0.979
2075.76	0.9825
2085.12	0.986
2094.47	0.988
2103.82	0.989
2113.18	0.989
2122.53	0.988
2131.88	0.988
2141.24	0.986
2150.59	0.985
2159.94	0.983
2169.29	0.9795
2178.65	0.9756
2188	0.97
2197.35	0.972
2206.71	0.973
2216.06	0.979
2225.41	0.985
2234.77	0.986
2244.12	0.986
2253.47	0.985
2262.83	0.983
2272.18	0.9812
2281.53	0.98
2290.89	0.976
2300.24	0.975
2309.59	0.9726
2318.94	0.9666
2328.3	0.9598
2337.65	0.9428
2347	0.9286
2356.36	0.9332
2365.71	0.9432
2375.06	0.95
2384.42	0.9558
2393.77	0.964
2403.12	0.9724
2412.48	0.9778
2421.83	0.982
2431.18	0.983
2440.53	0.982
2449.89	0.982
2459.24	0.982
2468.59	0.982
2477.95	0.98
2487.3	0.98
2496.65	0.98
2506.01	0.979
2515.36	0.979
2524.71	0.979
2534.07	0.979
2543.42	0.979
2552.77	0.977
2562.13	0.976
2571.48	0.977
2580.83	0.9767
2590.18	0.976
2599.54	0.976
2608.89	0.977
2618.24	0.979
2627.6	0.979
2636.95	0.98
2646.3	0.9784
2655.66	0.977
2665.01	0.975
2674.36	0.9727
2683.72	0.97
2693.07	0.9624
2702.42	0.9521
2711.77	0.9351
2721.13	0.93
2730.48	0.9323
2739.83	0.938
2749.19	0.9417
2758.54	0.939
2767.89	0.9413
2777.25	0.944
2786.6	0.944
2795.95	0.942
2805.31	0.9357
2814.66	0.9305
2824.01	0.9185
2833.37	0.9052
2842.72	0.8917
2852.07	0.87
2861.42	0.8358
2870.78	0.7742
2880.13	0.6697
2889.48	0.5554
2898.84	0.4646
2908.19	0.2998
2917.54	0.2367
2926.9	0.1908
2936.25	0.1867
2945.6	0.2411
2954.96	0.3511
2964.31	0.397
2973.66	0.3722
2983.01	0.2284
2992.37	0.234
3001.72	0.2246
3011.07	0.3335
3020.43	0.4494
3029.78	0.6789
3039.13	0.8496
3048.49	0.9144
3057.84	0.93
3067.19	0.939
3076.55	0.939
3085.9	0.9376
3095.25	0.933
3104.6	0.9255
3113.96	0.9078
3123.31	0.9072
3132.66	0.9135
3142.02	0.9338
3151.37	0.942
3160.72	0.9418
3170.08	0.936
3179.43	0.9347
3188.78	0.933
3198.14	0.933
3207.49	0.936
3216.84	0.938
3226.2	0.9411
3235.55	0.947
3244.9	0.9513
3254.25	0.954
3263.61	0.9552
3272.96	0.957
3282.31	0.958
3291.67	0.9582
3301.02	0.96
3310.37	0.96
3319.73	0.96
3329.08	0.96
3338.43	0.958
3347.79	0.958
3357.14	0.957
3366.49	0.957
3375.84	0.957
3385.2	0.957
3394.55	0.957
3403.9	0.958
3413.26	0.958
3422.61	0.958
3431.96	0.958
3441.32	0.9568
3450.67	0.9478
3460.02	0.9294
3469.38	0.8986
3478.73	0.8791
3488.08	0.8607
3497.44	0.8989
3506.79	0.9471
3516.14	0.954
3525.49	0.955
3534.85	0.954
3544.2	0.9499
3553.55	0.95
3562.91	0.953
3572.26	0.954
3581.61	0.95
3590.97	0.9511
3600.32	0.953
3609.67	0.951
3619.03	0.95
3628.38	0.947
3637.73	0.944
3647.08	0.9329
3656.44	0.922
3665.79	0.919
3675.14	0.914
3684.5	0.917
3693.85	0.929
3703.2	0.941
3712.56	0.947
3721.91	0.951
3731.26	0.954
3740.62	0.953
3749.97	0.951
3759.32	0.955
3768.68	0.957
3778.03	0.955
