Infrared Spectrum: Ethyl formate
Formula: C 3 H 6 O 2
CAS: 109-94-4
State: gas
Instrument: HP-GC/MS/IRD
Origin: NIST Mass Spectrometry Data Center
1/CM	ABSORBANCE
550	0.0005544
562	5.94e-05
574	3.96e-05
586	0.0001584
598	0.0003168
610	0.000297
622	0.0002178
634	0.000396
646	0.000198
658	0.0001782
670	0.0002574
682	0.0002772
694	0.0004158
706	0.000693
718	0.0011682
730	0.0016632
742	0.002178
754	0.0023562
766	0.002277
778	0.0020394
790	0.0021978
802	0.0030096
814	0.0041382
826	0.0058014
838	0.0065736
850	0.0059994
862	0.0047322
874	0.0029502
886	0.0017622
898	0.0012276
910	0.000891
922	0.0009504
934	0.0009702
946	0.0011286
958	0.0016038
970	0.0025938
982	0.0046728
994	0.0074448
1006	0.0089298
1018	0.009108
1030	0.0067716
1042	0.005049
1054	0.0046134
1066	0.0055242
1078	0.007524
1090	0.010989
1102	0.0149292
1114	0.0216216
1126	0.03663
1138	0.0685278
1150	0.113434
1162	0.16729
1174	0.198
1186	0.178042
1198	0.116543
1210	0.0479358
1222	0.0193446
1234	0.010296
1246	0.0068112
1258	0.005643
1270	0.0056034
1282	0.0064548
1294	0.0075834
1306	0.0077022
1318	0.006336
1330	0.004455
1342	0.0034452
1354	0.0037422
1366	0.0045936
1378	0.0064548
1390	0.0077418
1402	0.0077418
1414	0.0058608
1426	0.0049896
1438	0.005346
1450	0.006039
1462	0.0063162
1474	0.0063162
1486	0.0051876
1498	0.0040392
1510	0.0025938
1522	0.0017424
1534	0.0014454
1546	0.001287
1558	0.0012078
1570	0.0012672
1582	0.001287
1594	0.001386
1606	0.0016236
1618	0.0018414
1630	0.0021186
1642	0.0023364
1654	0.0025146
1666	0.0030888
1678	0.0044946
1690	0.0082566
1702	0.016632
1714	0.0348876
1726	0.0862092
1738	0.157331
1750	0.151807
1762	0.156974
1774	0.060291
1786	0.0265716
1798	0.0148302
1810	0.00495
1822	0.0026532
1834	0.0017424
1846	0.0012276
1858	0.0009504
1870	0.0007722
1882	0.0007524
1894	0.0007326
1906	0.0008316
1918	0.0008712
1930	0.0009702
1942	0.001089
1954	0.0013068
1966	0.0017028
1978	0.002079
1990	0.0023958
2002	0.0025146
2014	0.0026136
2026	0.0024552
2038	0.0019404
2050	0.001188
2062	0.0007128
2074	0.0005346
2086	0.0004158
2098	0.0003168
2110	0.0003762
2122	0.0003366
2134	0.0004158
2146	0.0004554
2158	0.0005346
2170	0.0006138
2182	0.0005544
2194	0.000594
2206	0.0005544
2218	0.0004158
2230	0.0003366
2242	0.000396
2254	0.000396
2266	0.0004752
2278	0.0005742
2290	0.000792
2302	0.0009702
2314	0.001188
2326	0.001386
2338	0.0015444
2350	0.0015246
2362	0.001188
2374	0.0009504
2386	0.000693
2398	0.0004752
2410	0.0003762
2422	0.0002376
2434	0.000198
2446	0.0002376
2458	0.0002178
2470	0.000297
2482	0.0001782
2494	0.0001782
2506	0.0001782
2518	0.000198
2530	0.000198
2542	0.0001386
2554	7.92e-05
2566	9.9e-05
2578	0.0001188
2590	9.9e-05
2602	9.9e-05
2614	0
2626	7.92e-05
2638	7.92e-05
2650	7.92e-05
2662	0.0001584
2674	0.0001386
2686	0.0003168
2698	0.000495
2710	0.0007722
2722	0.0009504
2734	0.0010692
2746	0.0010098
2758	0.0008316
2770	0.0008514
2782	0.0007722
2794	0.0008316
2806	0.0010098
2818	0.0013068
2830	0.001683
2842	0.0022374
2854	0.0031284
2866	0.0051084
2878	0.0089694
2890	0.0142758
2902	0.0220572
2914	0.0302148
2926	0.0355806
2938	0.0351252
2950	0.028512
2962	0.0233838
2974	0.0232848
2986	0.0248094
2998	0.0264726
3010	0.0194634
3022	0.0129492
3034	0.0071874
3046	0.0037818
3058	0.002178
3070	0.0016038
3082	0.001287
3094	0.0011484
3106	0.001386
3118	0.0014652
3130	0.0013662
3142	0.0009108
3154	0.0007722
3166	0.0007128
3178	0.0007326
3190	0.0006336
3202	0.0006732
3214	0.0005148
3226	0.000396
3238	0.0002376
3250	0.0001584
3262	0.0001584
3274	0.0001584
3286	0.0001188
3298	9.9e-05
3310	7.92e-05
3322	9.9e-05
3334	0.0001782
3346	0.0001584
3358	0.0001386
3370	0.0001188
3382	0.0001188
3394	0.0001584
3406	0.000297
3418	0.000297
3430	0.0004158
3442	0.0006732
3454	0.0013464
3466	0.001881
3478	0.0020988
3490	0.0021978
3502	0.0011682
3514	0.0008316
3526	0.0005346
3538	0.0004356
3550	0.0003564
3562	0.0003168
3574	0.0002178
3586	9.9e-05
3598	0.0001584
3610	7.92e-05
3622	9.9e-05
3634	0.0001386
3646	0.000198
3658	9.9e-05
3670	7.92e-05
3682	3.96e-05
3694	3.96e-05
3706	9.9e-05
3718	0.0002772
3730	0.0001386
3742	5.94e-05
3754	7.92e-05
3766	0.0001188
3778	7.92e-05
3790	0.0002178
3802	0.000198
3814	0.0001584
3826	0.0001584
3838	9.9e-05
