Infrared Spectrum: 1,1,3-TRICHLOROPROPENE
Formula: C3 H3 Cl3
CAS: 2567-14-8
State: LIQUID (NEAT)
Class: COBLENTZ III
Instrument: BAIRD (GRATING)
Instrument parameters: NaCl PRISM
Path length: 0.003 CM
Resolution: 2
Origin: WYANDOTTE CHEMICALS CORP.
1/CM	TRANSMITTANCE
626	0.6924
635	0.7042
644	0.6984
653	0.6635
662	0.5675
671	0.5022
680	0.3625
689	0.2756
698	0.2871
707	0.3541
716	0.4448
725	0.5258
734	0.5979
743	0.6615
752	0.7613
761	0.8197
770	0.8354
779	0.7787
788	0.6833
797	0.6242
806	0.492
815	0.2948
824	0.1449
833	0.0859
842	0.1117
851	0.1061
860	0.0581
869	0.0558
878	0.0886
887	0.2286
896	0.3811
905	0.489
914	0.5291
923	0.5142
932	0.3205
941	0.0928
950	0.0781
959	0.3718
968	0.6301
977	0.7227
986	0.7806
995	0.8239
1004	0.8383
1013	0.845
1022	0.8466
1031	0.8333
1040	0.8166
1049	0.7824
1058	0.7073
1067	0.5227
1076	0.2865
1085	0.5538
1094	0.757
1103	0.8477
1112	0.8687
1121	0.8681
1130	0.8739
1139	0.8797
1148	0.8511
1157	0.8
1166	0.6566
1175	0.2637
1184	0.238
1193	0.48
1202	0.6587
1211	0.7623
1220	0.7625
1229	0.7196
1238	0.589
1247	0.2492
1256	0.1523
1265	0.5356
1274	0.6847
1283	0.6065
1292	0.4159
1301	0.4596
1310	0.6136
1319	0.7715
1328	0.8375
1337	0.8673
1346	0.8932
1355	0.8962
1364	0.8962
1373	0.9011
1382	0.9067
1391	0.906
1400	0.9032
1409	0.8948
1418	0.8749
1427	0.8631
1436	0.8015
1445	0.6091
1454	0.3439
1463	0.6181
1472	0.7846
1481	0.8289
1490	0.8578
1499	0.8788
1508	0.8943
1517	0.8958
1526	0.8935
1535	0.8911
1544	0.9006
1553	0.8872
1562	0.8798
1571	0.8702
1580	0.8746
1589	0.87
1598	0.8315
1607	0.768
1616	0.6543
1625	0.3843
1634	0.075
1643	0.2632
1652	0.5404
1661	0.7448
1670	0.8104
1679	0.8203
1688	0.8368
1697	0.8538
1706	0.8613
1715	0.8746
1724	0.8712
1733	0.86
1742	0.8515
1751	0.8631
1760	0.8839
1769	0.8922
1778	0.8886
1787	0.8786
1796	0.8712
1805	0.8661
1814	0.8676
1823	0.8904
1832	0.915
1841	0.9256
1850	0.9223
1859	0.9246
1868	0.9309
1877	0.9271
1886	0.9182
1895	0.9158
1904	0.9168
1913	0.9199
1922	0.925
1931	0.9265
1940	0.927
1949	0.9274
1958	0.9283
1967	0.9291
1976	0.9278
1985	0.9255
1994	0.9242
2003	0.9273
2012	0.93
2021	0.9257
2030	0.9225
2039	0.9224
2048	0.9231
2057	0.9241
2066	0.9254
2075	0.9267
2084	0.9258
2093	0.9202
2102	0.9222
2111	0.9249
2120	0.9259
2129	0.9264
2138	0.9269
2147	0.9271
2156	0.9271
2165	0.9264
2174	0.9248
2183	0.9206
2192	0.9115
2201	0.9097
2210	0.9085
2219	0.9077
2228	0.9084
2237	0.9127
2246	0.9177
2255	0.9195
2264	0.9176
2273	0.911
2282	0.9047
2291	0.8997
2300	0.8968
2309	0.899
2318	0.9029
2327	0.9056
2336	0.9073
2345	0.9094
2354	0.9119
2363	0.9145
2372	0.9187
2381	0.922
2390	0.9248
2399	0.9267
2408	0.9269
2417	0.9259
2426	0.9247
2435	0.9249
2444	0.9273
2453	0.928
2462	0.9255
2471	0.9227
2480	0.9215
2489	0.9217
2498	0.922
2507	0.9236
2516	0.9259
2525	0.9293
2534	0.9315
2543	0.9321
2552	0.9322
2561	0.9323
2570	0.9324
2579	0.9325
2588	0.9326
2597	0.9323
2606	0.9296
2615	0.9257
2624	0.9218
2633	0.9222
2642	0.9263
2651	0.9304
2660	0.9291
2669	0.9243
2678	0.9172
2687	0.9079
2696	0.9028
2705	0.9051
2714	0.9155
2723	0.9253
2732	0.9285
2741	0.9281
2750	0.927
2759	0.9254
2768	0.9288
2777	0.9344
2786	0.9355
2795	0.9333
2804	0.9281
2813	0.9226
2822	0.9202
2831	0.9178
2840	0.9139
2849	0.9083
2858	0.8992
2867	0.8827
2876	0.8663
2885	0.8555
2894	0.8628
2903	0.876
2912	0.8777
2921	0.8768
2930	0.873
2939	0.8682
2948	0.8641
2957	0.8606
2966	0.8343
2975	0.7942
2984	0.7542
2993	0.7254
3002	0.7323
3011	0.7651
3020	0.7976
3029	0.83
3038	0.8521
3047	0.8424
3056	0.7894
3065	0.7348
3074	0.6804
3083	0.6626
3092	0.7314
3101	0.7815
3110	0.8313
3119	0.8739
3128	0.8864
3137	0.8916
3146	0.8967
3155	0.9038
3164	0.9116
3173	0.9165
3182	0.9212
3191	0.9222
3200	0.9184
3209	0.9111
3218	0.9015
3227	0.8934
3236	0.8871
3245	0.894
3254	0.9049
3263	0.9149
3272	0.9243
3281	0.9308
3290	0.9365
3299	0.9389
3308	0.9393
3317	0.9395
3326	0.9398
3335	0.9405
3344	0.9412
3353	0.9419
3362	0.9429
3371	0.9442
3380	0.9456
3389	0.9469
3398	0.9482
3407	0.9498
3416	0.9515
3425	0.9531
3434	0.9546
3443	0.9556
3452	0.9565
3461	0.9562
3470	0.955
3479	0.9538
3488	0.9523
3497	0.9507
3506	0.949
3515	0.9474
3524	0.9457
3533	0.9441
3542	0.9426
3551	0.9422
3560	0.9422
3569	0.9423
3578	0.9424
3587	0.9428
3596	0.9431
3605	0.9435
3614	0.944
3623	0.9446
3632	0.9453
3641	0.946
3650	0.9469
3659	0.9478
3668	0.9487
3677	0.95
3686	0.9515
3695	0.9529
3704	0.9543
3713	0.9559
3722	0.9576
3731	0.9592
3740	0.9607
3749	0.9622
3758	0.9636
3767	0.9649
3776	0.9655
3785	0.9655
3794	0.9641
3803	0.964
3812	0.9673
3821	0.9728
3830	0.9761
3839	0.979
3848	0.9804
3857	0.9804
3866	0.9793
3875	0.9778
3884	0.9763
3893	0.9746
3902	0.9725
3911	0.9704
3920	0.9683
3929	0.9663
3938	0.9645
3947	0.9642
3956	0.966
3965	0.9683
3974	0.9705
3983	0.9722
3992	0.9738
