Infrared Spectrum: PROPENE, 1,1,3-TRICHLORO-
Formula: C3 H3 Cl3
CAS: 2567-14-8
State: SOLUTION (10% IN CCl4 FOR 3800-1300, 10% IN CS2 FOR 1300-620, AND 10% CCl4 FOR 620-240 CM^-^1) VERSUS SOLVENT
Boiling point: 51 C AT 18 mmHg
Class: COBLENTZ III
Instrument: PERKIN-ELMER 521 (GRATING)
Instrument parameters: FILTERS AT 3150, 2500, 2000, 1150, 700, 410; GRATING CHANGES AT 2000, 630 CM^-^1
Sampling: TRANSMISSION
Path length: 0.012, 0.011, AND 0.010 CM (CsBr CELL)
Resolution: 4
Origin: DOW CORNING CORP.
1/CM	TRANSMITTANCE
239.387	0.766
249.234	0.793
259.081	0.808
268.928	0.816
278.774	0.822
288.621	0.829
298.468	0.861
308.315	0.868
318.162	0.881
328.009	0.885
337.856	0.876
347.703	0.888
357.549	0.889
367.396	0.887
377.243	0.883
387.09	0.875
396.937	0.865
406.784	0.856
416.631	0.842
426.477	0.801
436.324	0.726
446.171	0.695
456.018	0.762
465.865	0.775
475.712	0.7
485.559	0.622
495.405	0.722
505.252	0.789
515.099	0.814
524.946	0.821
534.793	0.829
544.64	0.826
554.487	0.83
564.334	0.832
574.18	0.828
584.027	0.789
593.874	0.604
603.721	0.477
613.568	0.651
623.415	0.689
633.262	0.743
643.108	0.774
652.955	0.782
662.802	0.762
672.649	0.719
682.496	0.616
692.343	0.457
702.19	0.48
712.037	0.575
721.883	0.648
731.73	0.71
741.577	0.778
751.424	0.818
761.271	0.834
771.118	0.813
780.965	0.801
790.811	0.753
800.658	0.692
810.505	0.585
820.352	0.3949
830.199	0.297
840.046	0.4
849.893	0.382
859.74	0.13
869.586	0.13
879.433	0.3401
889.28	0.57
899.127	0.663
908.974	0.688
918.821	0.712
928.668	0.628
938.514	0.3689
948.361	0.2491
958.208	0.707
968.055	0.829
977.902	0.864
987.749	0.884
997.596	0.891
1007.44	0.887
1017.29	0.881
1027.14	0.861
1036.98	0.86
1046.83	0.837
1056.68	0.777
1066.52	0.5859
1076.37	0.747
1086.22	0.856
1096.06	0.884
1105.91	0.887
1115.76	0.863
1125.6	0.825
1135.45	0.868
1145.3	0.869
1155.15	0.821
1164.99	0.6259
1174.84	0.4281
1184.69	0.7
1194.53	0.822
1204.38	0.844
1214.23	0.832
1224.07	0.779
1233.92	0.5999
1243.77	0.1611
1253.61	0.7081
1263.46	0.786
1273.31	0.743
1283.15	0.625
1293	0.681
1302.85	0.77
1312.7	0.836
1322.54	0.857
1332.39	0.859
1342.24	0.853
1352.08	0.861
1361.93	0.865
1371.78	0.872
1381.62	0.875
1391.47	0.873
1401.32	0.867
1411.16	0.86
1421.01	0.851
1430.86	0.766
1440.7	0.52
1450.55	0.813
1460.4	0.84
1470.25	0.859
1480.09	0.867
1489.94	0.865
1499.79	0.864
1509.63	0.859
1519.48	0.853
1529.33	0.844
1539.17	0.826
1549.02	0.818
1558.87	0.829
1568.71	0.825
1578.56	0.808
1588.41	0.757
1598.25	0.718
1608.1	0.5507
1617.95	0.1199
1627.79	0.2775
1637.64	0.7321
1647.49	0.814
1657.34	0.834
1667.18	0.851
1677.03	0.855
1686.88	0.863
1696.72	0.868
1706.57	0.868
1716.42	0.864
1726.26	0.86
1736.11	0.857
1745.96	0.86
1755.8	0.867
1765.65	0.871
1775.5	0.864
1785.34	0.841
1795.19	0.856
1805.04	0.863
1814.89	0.861
1824.73	0.875
1834.58	0.883
1844.43	0.88
1854.27	0.885
1864.12	0.885
1873.97	0.887
1883.81	0.884
1893.66	0.883
1903.51	0.887
1913.35	0.891
1923.2	0.891
1933.05	0.891
1942.89	0.891
1952.74	0.892
1962.59	0.889
1972.44	0.891
1982.28	0.891
1992.13	0.891
2001.98	0.893
2011.82	0.893
2021.67	0.893
2031.52	0.893
2041.36	0.892
2051.21	0.893
2061.06	0.893
2070.9	0.893
2080.75	0.8921
2090.6	0.891
2100.44	0.892
2110.29	0.891
2120.14	0.889
2129.99	0.892
2139.83	0.889
2149.68	0.888
2159.53	0.8918
2169.37	0.893
2179.22	0.8912
2189.07	0.889
2198.91	0.888
2208.76	0.8817
2218.61	0.8792
2228.45	0.881
2238.3	0.8763
2248.15	0.877
2257.99	0.8807
2267.84	0.883
2277.69	0.884
2287.53	0.881
2297.38	0.8803
2307.23	0.879
2317.08	0.8797
2326.92	0.881
2336.77	0.88
2346.62	0.88
2356.46	0.88
2366.31	0.88
2376.16	0.877
2386	0.88
2395.85	0.8792
2405.7	0.881
2415.54	0.8805
2425.39	0.882
2435.24	0.883
2445.08	0.885
2454.93	0.881
2464.78	0.877
2474.63	0.8795
2484.47	0.8781
2494.32	0.877
2504.17	0.877
2514.01	0.8779
2523.86	0.877
2533.71	0.8748
2543.55	0.879
2553.4	0.8764
2563.25	0.879
2573.09	0.881
2582.94	0.877
2592.79	0.879
2602.63	0.8793
2612.48	0.88
2622.33	0.88
2632.18	0.879
2642.02	0.8784
2651.87	0.873
2661.72	0.873
2671.56	0.871
2681.41	0.8648
2691.26	0.8632
2701.1	0.873
2710.95	0.872
2720.8	0.871
2730.64	0.871
2740.49	0.869
2750.34	0.873
2760.18	0.8726
2770.03	0.875
2779.88	0.872
2789.73	0.8689
2799.57	0.873
2809.42	0.8711
2819.27	0.871
2829.11	0.8668
2838.96	0.8588
2848.81	0.857
2858.65	0.8439
2868.5	0.8411
2878.35	0.857
2888.19	0.856
2898.04	0.855
2907.89	0.852
2917.73	0.852
2927.58	0.848
2937.43	0.8381
2947.27	0.8133
2957.12	0.7751
2966.97	0.724
2976.82	0.764
2986.66	0.8416
2996.51	0.8529
3006.36	0.856
3016.2	0.8587
3026.05	0.863
3035.9	0.861
3045.74	0.8533
3055.59	0.7872
3065.44	0.7555
3075.28	0.836
3085.13	0.8598
3094.98	0.8666
3104.82	0.8705
3114.67	0.875
3124.52	0.881
3134.37	0.881
3144.21	0.881
3154.06	0.8824
3163.91	0.883
3173.75	0.883
3183.6	0.883
3193.45	0.883
3203.29	0.8803
3213.14	0.875
3222.99	0.863
3232.83	0.8659
3242.68	0.8806
3252.53	0.887
3262.37	0.889
3272.22	0.889
3282.07	0.888
3291.92	0.888
3301.76	0.8859
3311.61	0.8845
3321.46	0.884
3331.3	0.886
3341.15	0.887
3351	0.884
3360.84	0.881
3370.69	0.882
3380.54	0.881
3390.38	0.883
3400.23	0.883
3410.08	0.881
3419.92	0.883
3429.77	0.881
3439.62	0.8822
3449.47	0.883
3459.31	0.8834
3469.16	0.883
3479.01	0.8817
3488.85	0.8823
3498.7	0.881
3508.55	0.883
3518.39	0.884
3528.24	0.881
3538.09	0.8833
3547.93	0.885
3557.78	0.8865
3567.63	0.884
3577.47	0.889
3587.32	0.8905
3597.17	0.888
3607.01	0.888
3616.86	0.889
3626.71	0.888
3636.56	0.885
3646.4	0.8838
3656.25	0.879
3666.1	0.8813
3675.94	0.8839
3685.79	0.883
3695.64	0.884
3705.48	0.887
3715.33	0.888
3725.18	0.8892
3735.02	0.891
3744.87	0.891
3754.72	0.888
3764.56	0.891
3774.41	0.889
3784.26	0.889
3794.11	0.888
