Infrared Spectrum: Beta-HYDROXYBUTYRALDEHYDE
Formula: C4 H8 O2
CAS: 107-89-1
State: LIQUID
Class: COBLENTZ
Instrument: Not specified, most likely a prism, grating, or hybrid spectrometer.
Sampling: TRANSMISSION
Path length: FILM BETWEEN SALT PLATES
Resolution: 4
Origin: DOW CHEMICAL COMPANY
MICROMETERS	TRANSMITTANCE
2.041	0.711
2.08214	0.718
2.12327	0.719
2.16441	0.721
2.20555	0.719
2.24669	0.718
2.28782	0.719
2.32896	0.726
2.3701	0.728
2.41124	0.726
2.45237	0.725
2.49351	0.731
2.53465	0.738
2.57578	0.738
2.61692	0.738
2.65806	0.737
2.6992	0.716
2.74033	0.647
2.78147	0.525
2.82261	0.378
2.86375	0.298
2.90488	0.261
2.94602	0.256
2.98716	0.288
3.0283	0.328
3.06943	0.369
3.11057	0.417
3.15171	0.467
3.19284	0.52
3.23398	0.568
3.27512	0.584
3.31626	0.548
3.35739	0.34
3.39853	0.386
3.43967	0.426
3.48081	0.46
3.52194	0.558
3.56308	0.608
3.60422	0.673
3.64535	0.67
3.68649	0.704
3.72763	0.723
3.76877	0.747
3.8099	0.756
3.85104	0.778
3.89218	0.788
3.93332	0.792
3.97445	0.798
4.01559	0.807
4.05673	0.817
4.09786	0.819
4.139	0.821
4.18014	0.81
4.22128	0.8
4.26241	0.816
4.30355	0.829
4.34469	0.828
4.38583	0.831
4.42696	0.831
4.4681	0.831
4.50924	0.828
4.55038	0.833
4.59151	0.829
4.63265	0.831
4.67379	0.829
4.71492	0.829
4.75606	0.828
4.7972	0.828
4.83834	0.828
4.87947	0.828
4.92061	0.828
4.96175	0.829
5.00289	0.831
5.04402	0.836
5.08516	0.838
5.1263	0.841
5.16743	0.841
5.20857	0.843
5.24971	0.845
5.29085	0.845
5.33198	0.845
5.37312	0.845
5.41426	0.845
5.4554	0.838
5.49653	0.836
5.53767	0.824
5.57881	0.824
5.61994	0.821
5.66108	0.817
5.70222	0.79
5.74336	0.725
5.78449	0.644
5.82563	0.639
5.86677	0.616
5.90791	0.424
5.94904	0.457
5.99018	0.568
6.03132	0.627
6.07245	0.621
6.11359	0.659
6.15473	0.719
6.19587	0.757
6.237	0.771
6.27814	0.778
6.31928	0.78
6.36042	0.786
6.40155	0.798
6.44269	0.8
6.48383	0.816
6.52497	0.816
6.5661	0.809
6.60724	0.798
6.64838	0.786
6.68951	0.749
6.73065	0.697
6.77179	0.615
6.81293	0.513
6.85406	0.441
6.8952	0.424
6.93634	0.431
6.97748	0.415
7.01861	0.386
7.05975	0.371
7.10089	0.427
7.14202	0.455
7.18316	0.353
7.2243	0.285
7.26544	0.367
7.30657	0.462
7.34771	0.515
7.38885	0.469
7.42999	0.429
7.47112	0.457
7.51226	0.53
7.5534	0.558
7.59453	0.587
7.63567	0.627
7.67681	0.649
7.71795	0.675
7.75908	0.668
7.80022	0.654
7.84136	0.63
7.8825	0.608
7.92363	0.609
7.96477	0.635
8.00591	0.635
8.04705	0.599
8.08818	0.582
8.12932	0.601
8.17046	0.621
8.21159	0.632
8.25273	0.651
8.29387	0.659
8.33501	0.604
8.37614	0.525
8.41728	0.458
8.45842	0.396
8.49956	0.371
8.54069	0.326
8.58183	0.238
8.62297	0.152
8.6641	0.128
8.70524	0.121
8.74638	0.12
8.78752	0.135
8.82865	0.17
8.86979	0.202
8.91093	0.216
8.95207	0.214
8.9932	0.189
9.03434	0.171
9.07548	0.163
9.11661	0.168
9.15775	0.195
9.19889	0.211
9.24003	0.245
9.28116	0.314
9.3223	0.412
9.36344	0.487
9.40458	0.554
9.44571	0.596
9.48685	0.616
9.52799	0.62
9.56913	0.597
9.61026	0.558
9.6514	0.512
9.69254	0.474
9.73367	0.439
9.77481	0.426
9.81595	0.432
9.85709	0.462
9.89822	0.505
9.93936	0.544
9.9805	0.554
10.0216	0.553
10.0628	0.541
10.1039	0.51
10.145	0.474
10.1862	0.431
10.2273	0.388
10.2685	0.35
10.3096	0.328
10.3507	0.307
10.3919	0.304
10.433	0.31
10.4741	0.31
10.5153	0.319
10.5564	0.348
10.5976	0.379
10.6387	0.419
10.6798	0.458
10.721	0.481
10.7621	0.484
10.8032	0.5
10.8444	0.546
10.8855	0.584
10.9267	0.591
10.9678	0.561
11.0089	0.51
11.0501	0.47
11.0912	0.46
11.1323	0.481
11.1735	0.52
11.2146	0.568
11.2558	0.601
11.2969	0.623
11.338	0.627
11.3792	0.618
11.4203	0.599
11.4614	0.577
11.5026	0.577
11.5437	0.589
11.5849	0.597
11.626	0.608
11.6671	0.606
11.7083	0.594
11.7494	0.582
11.7905	0.587
11.8317	0.594
11.8728	0.584
11.914	0.568
11.9551	0.57
11.9962	0.599
12.0374	0.627
12.0785	0.646
12.1196	0.656
12.1608	0.659
12.2019	0.649
12.243	0.64
12.2842	0.639
12.3253	0.652
12.3665	0.675
12.4076	0.692
12.4487	0.702
12.4899	0.714
12.531	0.723
12.5721	0.73
12.6133	0.737
12.6544	0.743
12.6956	0.745
12.7367	0.749
12.7778	0.75
12.819	0.75
12.8601	0.75
12.9012	0.747
12.9424	0.742
12.9835	0.737
13.0247	0.719
13.0658	0.697
13.1069	0.685
13.1481	0.689
13.1892	0.719
13.2303	0.737
13.2715	0.756
13.3126	0.759
13.3538	0.759
13.3949	0.761
13.436	0.761
13.4772	0.759
13.5183	0.764
13.5594	0.759
13.6006	0.761
13.6417	0.761
13.6829	0.759
13.724	0.756
13.7651	0.756
13.8063	0.754
13.8474	0.75
13.8885	0.75
13.9297	0.752
13.9708	0.747
14.012	0.745
14.0531	0.742
14.0942	0.738
14.1354	0.731
14.1765	0.728
14.2176	0.725
14.2588	0.718
14.2999	0.714
14.3411	0.707
14.3822	0.702
14.4233	0.697
14.4645	0.692
14.5056	0.69
14.5467	0.69
14.5879	0.689
14.629	0.683
14.6701	0.682
14.7113	0.682
14.7524	0.682
14.7936	0.68
14.8347	0.671
14.8758	0.658
14.917	0.64
14.9581	0.635
14.9992	0.634
15.0404	0.625
15.0815	0.618
15.1227	0.62
15.1638	0.627
15.2049	0.635
15.2461	0.642
15.2872	0.646
15.3283	0.644
15.3695	0.644
15.4106	0.646
15.4518	0.646
15.4929	0.644
15.534	0.64
15.5752	0.64
15.6163	0.639
15.6574	0.639
15.6986	0.637
15.7397	0.63
15.7809	0.63
15.822	0.627
15.8631	0.627
