Infrared Spectrum: Propanamide, 2-hydroxy-
Formula: C 3 H 7 N O 2
CAS: 2043-43-8
State: gas
Origin: Sadtler Research Labs Under US-EPA Contract
1/CM	ABSORBANCE
450	0.0239675
462	0.0173882
474	0.0106522
486	0.0108089
498	0.0242808
510	0.0606236
522	0.078325
534	0.0673595
546	0.0332098
558	0.0169182
570	0.0119054
582	0.00454285
594	0.00986895
606	0.0006266
618	0.00704925
630	0.0114355
642	0.0140985
654	0.0155084
666	0.0158216
678	0.00955565
690	0.022401
702	0.0216177
714	0.0311734
726	0.041199
738	0.0538876
750	0.053731
762	0.0549842
774	0.0590571
786	0.059527
798	0.0612502
810	0.0603103
822	0.0546709
834	0.050128
846	0.0454285
858	0.0466817
870	0.0495014
882	0.06313
894	0.0888206
906	0.0993161
918	0.0935201
930	0.0726856
942	0.0518512
954	0.0437054
966	0.0458985
978	0.0339931
990	0.0371261
1002	0.0540443
1014	0.0950866
1026	0.132839
1038	0.149757
1050	0.133779
1062	0.125163
1074	0.167146
1086	0.252207
1098	0.342594
1110	0.331628
1122	0.291839
1134	0.257846
1146	0.229806
1158	0.173882
1170	0.101039
1182	0.0911703
1194	0.101039
1206	0.105739
1218	0.0991595
1230	0.0979063
1242	0.113571
1254	0.138322
1266	0.168085
1278	0.210224
1290	0.292779
1302	0.424208
1314	0.501123
1326	0.448489
1338	0.31424
1350	0.219623
1362	0.210694
1374	0.229492
1386	0.210538
1398	0.150071
1410	0.0723723
1422	0.0490315
1434	0.0496581
1446	0.0543576
1458	0.0687694
1470	0.0424522
1482	0.0184847
1494	0.0109655
1506	0.0119054
1518	0.0153517
1530	0.0343064
1542	0.0726856
1554	0.202705
1566	0.349173
1578	0.448176
1590	0.402747
1602	0.263799
1614	0.146938
1626	0.0778551
1638	0.0507546
1650	0.0463684
1662	0.0524778
1674	0.0910137
1686	0.159626
1698	0.263955
1710	0.579135
1722	1.23299
1734	1.50603
1746	1.47737
1758	0.634433
1770	0.232155
1782	0.135972
1794	0.0889772
1806	0.0507546
1818	0.0205212
1830	0.0122187
1842	0.00767585
1854	0.00516945
1866	0.00391625
1878	0.00140985
1890	0.00266305
1902	0.0006266
1914	0.00015665
1926	0
1938	0.0009399
1950	0.00078325
1962	0.00234975
1974	0.003133
1986	0.0043862
1998	0.00548275
2010	0.0053261
2022	0.00454285
2034	0.00328965
2046	0.0034463
2058	0.00266305
2070	0.00266305
2082	0.0015665
2094	0.0018798
2106	0.0018798
2118	0.00172315
2130	0.00140985
2142	0.0009399
2154	0.00109655
2166	0.00109655
2178	0.00109655
2190	0.00109655
2202	0.0012532
2214	0.00140985
2226	0.0018798
2238	0.00297635
2250	0.0040729
2262	0.0046995
2274	0.00516945
2286	0.00673595
2298	0.0068926
2310	0.0068926
2322	0.00485615
2334	0.0040729
2346	0.0081458
2358	0.00704925
2370	0.0090857
2382	0.0081458
2394	0.00328965
2406	0.00266305
2418	0.00172315
2430	0.00109655
2442	0.00109655
2454	0.0015665
2466	0.00172315
2478	0.00140985
2490	0.00140985
2502	0.00109655
2514	0.00078325
2526	0.00046995
2538	0.00046995
2550	0.0006266
2562	0
2574	0
2586	0.0006266
2598	0.00078325
2610	0.0012532
2622	0.0018798
2634	0.00203645
2646	0.00203645
2658	0.0021931
2670	0.0025064
2682	0.0021931
2694	0.0015665
2706	0.00172315
2718	0.00140985
2730	0.00234975
2742	0.0025064
2754	0.0028197
2766	0.0034463
2778	0.00485615
2790	0.00704925
2802	0.0101823
2814	0.0148818
2826	0.0198946
2838	0.0236542
2850	0.0296069
2862	0.0437054
2874	0.0650098
2886	0.0831812
2898	0.0897605
2910	0.0952432
2922	0.114198
2934	0.116861
2946	0.109812
2958	0.0999427
2970	0.123754
2982	0.196282
2994	0.180774
3006	0.104172
3018	0.0405724
3030	0.0136286
3042	0.00767585
3054	0.006266
3066	0.00485615
3078	0.0037596
3090	0.003133
3102	0.00328965
3114	0.003133
3126	0.003133
3138	0.00328965
3150	0.0034463
3162	0.00391625
3174	0.00422955
3186	0.0040729
3198	0.0043862
3210	0.0037596
3222	0.0021931
3234	0.00203645
3246	0.00109655
3258	0.00046995
3270	0.00046995
3282	0.00046995
3294	0.0015665
3306	0.00203645
3318	0.00266305
3330	0.003133
3342	0.0037596
3354	0.0050128
3366	0.0072059
3378	0.0122187
3390	0.0217744
3402	0.0482482
3414	0.110282
3426	0.171218
3438	0.176231
3450	0.123127
3462	0.0598403
3474	0.0352462
3486	0.0455852
3498	0.0791083
3510	0.124537
3522	0.184064
3534	0.257219
3546	0.305937
3558	0.264112
3570	0.162916
3582	0.0665763
3594	0.0297635
3606	0.0181714
3618	0.0153517
3630	0.021931
3642	0.0347763
3654	0.0581172
3666	0.0645398
3678	0.0462118
3690	0.0175448
3702	0.00610935
3714	0.0021931
3726	0.0018798
3738	0.00078325
3750	0.0006266
3762	0
3774	0
3786	0
3798	0
3810	0
3822	0
3834	0
3846	0
3858	0
3870	0
3882	0
3894	0
3906	0
3918	0
3930	0
3942	0
3954	0
3966	0
