Infrared Spectrum: Methane, chlorotrifluoro-
Formula: C Cl F 3
CAS: 75-72-9
State: gas
Origin: Sadtler Research Labs Under US-EPA Contract
1/CM	ABSORBANCE
450	0
462	0.00409072
474	0.00340893
486	0.00628758
498	0.00325742
510	0.00499976
522	0.00522703
534	0.00454524
546	0.00598457
558	0.00681786
570	0.0047725
582	0.00613607
594	0.00515127
606	0.00340893
618	0.00606032
630	0.00454524
642	0.00386345
654	0.00287865
666	0.00409072
678	0.00416647
690	0.00363619
702	0.0028029
714	0.00356044
726	0.00454524
738	0.00303016
750	0.00409072
762	0.0140902
774	0.0212869
786	0.0278017
798	0.0215899
810	0.00590881
822	0.00439373
834	0.00204536
846	0.00393921
858	0.00272714
870	0.00265139
882	0.00454524
894	0.00371195
906	0.00303016
918	0.00492401
930	0.0037877
942	0.00409072
954	0.00439373
966	0.00386345
978	0.00409072
990	0.00363619
1002	0.00143933
1014	0.00234837
1026	0.00136357
1038	0.00151508
1050	0.0056058
1062	0.00749965
1074	0.0315894
1086	0.154993
1098	0.285214
1110	0.306879
1122	0.287562
1134	0.0341651
1146	0.00772691
1158	0.00484826
1170	0.0105298
1182	0.0259079
1194	0.129918
1206	0.552095
1218	0.675195
1230	0.105828
1242	0.0176507
1254	0.00962076
1266	0.00787842
1278	0.00636334
1290	0.00318167
1302	0.00401496
1314	0.00386345
1326	0.00545429
1338	0.00719663
1350	0.00628758
1362	0.0047725
1374	0.00348468
1386	0.00265139
1398	0.00257564
1410	0.00272714
1422	0.00257564
1434	0.00348468
1446	0.00325742
1458	0.00265139
1470	0.00287865
1482	0.00227262
1494	0.00249988
1506	0.00265139
1518	0.00249988
1530	0.00265139
1542	0.00265139
1554	0.00310591
1566	0.00325742
1578	0.00356044
1590	0.00272714
1602	0.0028029
1614	0.00242413
1626	0.00257564
1638	0.00303016
1650	0.0028029
1662	0.00257564
1674	0.00242413
1686	0.00265139
1698	0.00265139
1710	0.00234837
1722	0.00249988
1734	0.00272714
1746	0.00219687
1758	0.00234837
1770	0.00204536
1782	0.00159083
1794	0.00227262
1806	0.00234837
1818	0.00204536
1830	0.00234837
1842	0.00219687
1854	0.00212111
1866	0.00265139
1878	0.00295441
1890	0.00303016
1902	0.00265139
1914	0.00227262
1926	0.00234837
1938	0.00227262
1950	0.00234837
1962	0.00234837
1974	0.00257564
1986	0.00356044
1998	0.0028029
2010	0.00204536
2022	0.0018181
2034	0.00219687
2046	0.00234837
2058	0.00212111
2070	0.0019696
2082	0.0019696
2094	0.0019696
2106	0.0018181
2118	0.00219687
2130	0.00219687
2142	0.00204536
2154	0.00174234
2166	0.0018181
2178	0.00174234
2190	0.00151508
2202	0.00151508
2214	0.00212111
2226	0.00151508
2238	0.00174234
2250	0.00204536
2262	0.00174234
2274	0.00212111
2286	0.00189385
2298	0.00303016
2310	0.0056058
2322	0.00568155
2334	0.00424222
2346	0.00356044
2358	0.0018181
2370	0.00310591
2382	0.00204536
2394	0.00227262
2406	0.00310591
2418	0.00295441
2430	0.00257564
2442	0.00234837
2454	0.00249988
2466	0.00189385
2478	0.00159083
2490	0.00174234
2502	0.00143933
2514	0.00136357
2526	0.00159083
2538	0.00174234
2550	0.00136357
2562	0.00143933
2574	0.00151508
2586	0.00113631
2598	0.00151508
2610	0.00143933
2622	0.00113631
2634	0.00128782
2646	0.00128782
2658	0.00113631
2670	0.00136357
2682	0.00143933
2694	0.00136357
2706	0.00136357
2718	0.00128782
2730	0.00166659
2742	0.00136357
2754	0.00136357
2766	0.00128782
2778	0.00136357
2790	0.00121206
2802	0.00143933
2814	0.00159083
2826	0.00166659
2838	0.00143933
2850	0.00143933
2862	0.00189385
2874	0.00166659
2886	0.00136357
2898	0.00151508
2910	0.00151508
2922	0.00159083
2934	0.00128782
2946	0.00151508
2958	0.0018181
2970	0.00174234
2982	0.00143933
2994	0.00189385
3006	0.00151508
3018	0.0019696
3030	0.00136357
3042	0.0019696
3054	0.00151508
3066	0.00204536
3078	0.00166659
3090	0.0018181
3102	0.00166659
3114	0.00159083
3126	0.0018181
3138	0.00189385
3150	0.00219687
3162	0.00166659
3174	0.00174234
3186	0.00166659
3198	0.00166659
3210	0.0019696
3222	0.00189385
3234	0.00219687
3246	0.00189385
3258	0.00219687
3270	0.0018181
3282	0.00204536
3294	0.0018181
3306	0.0019696
3318	0.00174234
3330	0.00189385
3342	0.0019696
3354	0.00174234
3366	0.00219687
3378	0.00159083
3390	0.00189385
3402	0.0018181
3414	0.00219687
3426	0.00212111
3438	0.00189385
3450	0.00174234
3462	0.00303016
3474	0.00242413
3486	0.00204536
3498	0.0018181
3510	0.00227262
3522	0.0018181
3534	0.0018181
3546	0.00166659
3558	0.00189385
3570	0.00265139
3582	0.00242413
3594	0.0019696
3606	0.0028029
3618	0.00295441
3630	0.00333318
3642	0.00257564
3654	0.00242413
3666	0.00242413
3678	0.00340893
3690	0.00272714
3702	0.00333318
3714	0.00257564
3726	0.00287865
3738	0.00295441
3750	0.0018181
3762	0.00242413
3774	0.00242413
3786	0.00174234
3798	0.00204536
3810	0.00287865
3822	0.00318167
3834	0.00287865
3846	0.0037877
3858	0.00348468
3870	0.00174234
3882	0.00234837
3894	0.00318167
3906	0.00325742
3918	0.00227262
3930	0.00287865
3942	0.00249988
3954	0.00219687
3966	0.00219687
