Infrared Spectrum: Methane, chlorotrifluoro-
Formula: C Cl F3
CAS: 75-72-9
State: GAS (50 mmHg, N2 ADDED, TOTAL PRESSURE 600 mmHg)
Class: COBLENTZ
Instrument: DOW KBr FOREPRISM-GRATING
Instrument parameters: GRATING CHANGED AT 5.0, 7.5, 15.0 MICRON
Sampling: TRANSMISSION
Path length: 5 CM
Resolution: 2
Origin: DOW CHEMICAL COMPANY
1/CM	TRANSMITTANCE
460	0.8492
469	0.8602
478	0.87
487	0.8788
496	0.8862
505	0.8906
514	0.8897
523	0.885
532	0.8795
541	0.8699
550	0.8608
559	0.8613
568	0.8685
577	0.8766
586	0.8861
595	0.8929
604	0.8953
613	0.8928
622	0.891
631	0.892
640	0.8973
649	0.9013
658	0.9
667	0.9186
676	0.902
685	0.8903
694	0.8819
703	0.8733
712	0.8669
721	0.8618
730	0.8582
739	0.8548
748	0.8494
757	0.8257
766	0.7137
775	0.6729
784	0.7478
793	0.6534
802	0.8396
811	0.847
820	0.8471
829	0.8472
838	0.8474
847	0.8475
856	0.8476
865	0.8477
874	0.8475
883	0.8457
892	0.8421
901	0.8415
910	0.8439
919	0.8471
928	0.8474
937	0.8459
946	0.846
955	0.8507
964	0.8527
973	0.8537
982	0.8543
991	0.8549
1000	0.8558
1009	0.8574
1018	0.8587
1027	0.8554
1036	0.852
1045	0.849
1054	0.8419
1063	0.8236
1072	0.7738
1081	0.5111
1090	0.0719
1099	0.0369
1108	0.1403
1117	0.0123
1126	0.6287
1135	0.7089
1144	0.8465
1153	0.856
1162	0.8463
1171	0.806
1180	0.7587
1189	0.7331
1198	0.3005
1207	0.0083
1216	0.0077
1225	0.07
1234	0.5686
1243	0.8011
1252	0.8154
1261	0.8292
1270	0.835
1279	0.8522
1288	0.8498
1297	0.8461
1306	0.8423
1315	0.8353
1324	0.8257
1333	0.8154
1342	0.8112
1351	0.8252
1360	0.8358
1369	0.8425
1378	0.8444
1387	0.8444
1396	0.8542
1405	0.8522
1414	0.8539
1423	0.8557
1432	0.8495
1441	0.8446
1450	0.8452
1459	0.8509
1468	0.8484
1477	0.8465
1486	0.8449
1495	0.8488
1504	0.8522
1513	0.8495
1522	0.8518
1531	0.8513
1540	0.8568
1549	0.8482
1558	0.852
1567	0.8392
1576	0.8416
1585	0.8371
1594	0.8394
1603	0.842
1612	0.8443
1621	0.8461
1630	0.8485
1639	0.8485
1648	0.8527
1657	0.8476
1666	0.8494
1675	0.8552
1684	0.8558
1693	0.8626
1702	0.8597
1711	0.8576
1720	0.8545
1729	0.8614
1738	0.8552
1747	0.8564
1756	0.849
1765	0.8472
1774	0.8459
1783	0.8459
1792	0.8466
1801	0.8473
1810	0.8477
1819	0.8472
1828	0.8472
1837	0.8509
1846	0.8486
1855	0.8459
1864	0.8448
1873	0.8384
1882	0.8332
1891	0.8378
1900	0.8443
1909	0.8485
1918	0.8491
1927	0.849
1936	0.8486
1945	0.848
1954	0.8475
1963	0.8472
1972	0.8454
1981	0.8397
1990	0.8362
1999	0.8399
2008	0.8459
2017	0.8491
2026	0.8493
2035	0.8494
2044	0.8494
2053	0.8488
2062	0.8484
2071	0.8484
2080	0.8485
2089	0.8486
2098	0.8486
2107	0.8487
2116	0.8492
2125	0.8497
2134	0.8502
2143	0.8506
2152	0.851
2161	0.8513
2170	0.8516
2179	0.8518
2188	0.8518
2197	0.8518
2206	0.8518
2215	0.8518
2224	0.8518
2233	0.8515
2242	0.8512
2251	0.8509
2260	0.8505
2269	0.8499
2278	0.8493
2287	0.8481
2296	0.8412
2305	0.8172
2314	0.8121
2323	0.8299
2332	0.8594
2341	0.8617
2350	0.8658
2359	0.8678
2368	0.8628
2377	0.8516
2386	0.8428
2395	0.836
2404	0.831
2413	0.8305
2422	0.8325
2431	0.8367
2440	0.8411
2449	0.8437
2458	0.8454
2467	0.8466
2476	0.8477
2485	0.8484
2494	0.8485
2503	0.8485
2512	0.8487
2521	0.8492
2530	0.8497
2539	0.8502
2548	0.8505
2557	0.8506
2566	0.8508
2575	0.851
2584	0.8512
2593	0.8514
2602	0.8516
2611	0.8519
2620	0.8522
2629	0.8524
2638	0.8527
2647	0.853
2656	0.8533
2665	0.8535
2674	0.8536
2683	0.8537
2692	0.8538
2701	0.8539
2710	0.854
2719	0.8541
2728	0.8542
2737	0.8541
2746	0.854
2755	0.8539
2764	0.8538
2773	0.8537
2782	0.8536
2791	0.8535
2800	0.8538
2809	0.8541
2818	0.8545
2827	0.8548
2836	0.855
2845	0.8552
2854	0.8555
2863	0.8556
2872	0.8559
2881	0.8566
2890	0.8576
2899	0.8585
2908	0.8589
2917	0.8576
2926	0.8559
2935	0.8559
2944	0.8558
2953	0.8557
2962	0.856
2971	0.8562
2980	0.8565
2989	0.8567
2998	0.8567
3007	0.8568
3016	0.8568
3025	0.8569
3034	0.857
3043	0.857
3052	0.8574
3061	0.8578
3070	0.8582
3079	0.8586
3088	0.8591
3097	0.8593
3106	0.8594
3115	0.8594
3124	0.8595
3133	0.8595
3142	0.8596
3151	0.8596
3160	0.86
3169	0.8603
3178	0.8607
3187	0.861
3196	0.8614
3205	0.8617
3214	0.8621
3223	0.8625
3232	0.8629
3241	0.8633
3250	0.8633
3259	0.8632
3268	0.8632
3277	0.8632
3286	0.8635
3295	0.8638
3304	0.8641
3313	0.8644
3322	0.8647
3331	0.865
3340	0.8654
3349	0.8656
3358	0.866
3367	0.8663
3376	0.8667
3385	0.867
3394	0.8673
3403	0.8676
3412	0.868
3421	0.8683
3430	0.8686
3439	0.8688
3448	0.8687
3457	0.8685
3466	0.8684
3475	0.8683
3484	0.8684
3493	0.8684
3502	0.8685
3511	0.8685
3520	0.8686
3529	0.8684
3538	0.8683
3547	0.8681
3556	0.8681
3565	0.8686
3574	0.8692
3583	0.8696
3592	0.8702
3601	0.8703
3610	0.8703
3619	0.8704
3628	0.8693
3637	0.8705
3646	0.8703
3655	0.8689
3664	0.8675
3673	0.8668
3682	0.868
3691	0.87
3700	0.873
3709	0.8766
3718	0.8777
3727	0.8737
3736	0.8685
3745	0.8673
3754	0.8676
3763	0.8681
3772	0.8712
3781	0.8714
3790	0.8667
