Infrared Spectrum: 1,3-DICHLOROBUTANE
Formula: C4 H8 Cl2
CAS: 1190-22-3
Class: COBLENTZ
Instrument: Not specified, most likely a prism, grating, or hybrid spectrometer.
Sampling: TRANSMISSION
Path length: 0.0025 CM
Resolution: 4
Origin: W.T. BOLLETER
MICROMETERS	TRANSMITTANCE
14.546	0.271
14.6165	0.257
14.687	0.206
14.7575	0.149
14.8279	0.079
14.8984	0.028
14.9689	0
15.0394	0
15.1099	0
15.1804	0
15.2508	0
15.3213	0
15.3918	0
15.4623	0.012
15.5328	0.042
15.6033	0.083
15.6737	0.126
15.7442	0.133
15.8147	0.129
15.8852	0.106
15.9557	0.065
16.0262	0.035
16.0967	0.003
16.1671	0
16.2376	0
16.3081	0
16.3786	0
16.4491	0
16.5196	0
16.59	0
16.6605	0
16.731	0
16.8015	0.001
16.872	0.017
16.9425	0.083
17.013	0.17
17.0834	0.294
17.1539	0.397
17.2244	0.486
17.2949	0.57
17.3654	0.639
17.4359	0.698
17.5063	0.742
17.5768	0.769
17.6473	0.788
17.7178	0.817
17.7883	0.841
17.8588	0.863
17.9292	0.88
17.9997	0.902
18.0702	0.914
18.1407	0.93
18.2112	0.939
18.2817	0.952
18.3522	0.962
18.4226	0.964
18.4931	0.959
18.5636	0.948
18.6341	0.932
18.7046	0.898
18.7751	0.85
18.8455	0.767
18.916	0.658
18.9865	0.563
19.057	0.474
19.1275	0.454
19.198	0.497
19.2684	0.602
19.3389	0.699
19.4094	0.767
19.4799	0.783
19.5504	0.765
19.6209	0.715
19.6914	0.648
19.7618	0.595
19.8323	0.518
19.9028	0.445
19.9733	0.369
20.0438	0.317
20.1143	0.328
20.1847	0.399
20.2552	0.499
20.3257	0.609
20.3962	0.703
20.4667	0.769
20.5372	0.82
20.6077	0.843
20.6781	0.861
20.7486	0.872
20.8191	0.88
20.8896	0.882
20.9601	0.886
21.0306	0.884
21.101	0.884
21.1715	0.882
21.242	0.882
21.3125	0.882
21.383	0.877
21.4535	0.873
21.5239	0.863
21.5944	0.856
21.6649	0.849
21.7354	0.825
21.8059	0.806
21.8764	0.795
21.9469	0.769
22.0173	0.735
22.0878	0.701
22.1583	0.655
22.2288	0.611
22.2993	0.559
22.3698	0.502
22.4402	0.445
22.5107	0.374
22.5812	0.316
22.6517	0.255
22.7222	0.22
22.7927	0.206
22.8631	0.206
22.9336	0.232
23.0041	0.266
23.0746	0.309
23.1451	0.346
23.2156	0.388
23.2861	0.422
23.3565	0.454
23.427	0.497
23.4975	0.515
23.568	0.539
23.6385	0.563
23.709	0.584
23.7794	0.6
23.8499	0.607
23.9204	0.616
23.9909	0.612
24.0614	0.6
24.1319	0.573
24.2024	0.527
24.2728	0.474
24.3433	0.399
24.4138	0.31
24.4843	0.232
24.5548	0.174
24.6253	0.145
24.6957	0.143
24.7662	0.17
24.8367	0.229
24.9072	0.266
24.9777	0.282
25.0482	0.287
25.1186	0.284
25.1891	0.273
25.2596	0.253
25.3301	0.234
25.4006	0.22
25.4711	0.209
25.5416	0.211
25.612	0.223
25.6825	0.253
25.753	0.301
25.8235	0.355
25.894	0.413
25.9645	0.468
26.0349	0.52
26.1054	0.557
26.1759	0.602
26.2464	0.634
26.3169	0.667
26.3874	0.69
26.4579	0.706
26.5283	0.724
26.5988	0.74
26.6693	0.756
26.7398	0.765
26.8103	0.769
26.8808	0.772
26.9512	0.776
27.0217	0.779
27.0922	0.781
27.1627	0.783
27.2332	0.781
27.3037	0.774
27.3741	0.763
27.4446	0.754
27.5151	0.735
27.5856	0.721
27.6561	0.703
27.7266	0.685
27.7971	0.657
27.8675	0.639
27.938	0.607
28.0085	0.595
28.079	0.575
28.1495	0.539
28.22	0.513
28.2904	0.479
28.3609	0.444
28.4314	0.406
28.5019	0.367
28.5724	0.323
28.6429	0.275
28.7133	0.227
28.7838	0.191
28.8543	0.152
28.9248	0.126
28.9953	0.095
29.0658	0.076
29.1363	0.065
29.2067	0.056
29.2772	0.053
29.3477	0.053
29.4182	0.055
29.4887	0.067
29.5592	0.085
29.6296	0.115
29.7001	0.154
29.7706	0.202
29.8411	0.259
29.9116	0.317
29.9821	0.376
30.0526	0.447
30.123	0.486
30.1935	0.529
30.264	0.584
30.3345	0.63
30.405	0.667
30.4755	0.698
30.5459	0.728
30.6164	0.751
30.6869	0.772
30.7574	0.793
30.8279	0.806
30.8984	0.833
30.9688	0.847
31.0393	0.857
31.1098	0.865
31.1803	0.873
31.2508	0.882
31.3213	0.895
31.3918	0.898
31.4622	0.904
31.5327	0.904
31.6032	0.9
31.6737	0.896
31.7442	0.896
31.8147	0.895
31.8851	0.884
31.9556	0.88
32.0261	0.875
32.0966	0.87
32.1671	0.861
32.2376	0.854
32.308	0.841
32.3785	0.827
32.449	0.818
32.5195	0.802
32.59	0.788
32.6605	0.77
32.731	0.756
32.8014	0.747
32.8719	0.742
32.9424	0.737
33.0129	0.73
33.0834	0.698
33.1539	0.667
33.2243	0.648
33.2948	0.626
33.3653	0.621
33.4358	0.619
33.5063	0.621
33.5768	0.623
33.6473	0.626
33.7177	0.641
33.7882	0.653
33.8587	0.671
33.9292	0.689
33.9997	0.706
34.0702	0.722
34.1406	0.737
34.2111	0.753
34.2816	0.76
34.3521	0.776
34.4226	0.783
34.4931	0.79
34.5635	0.795
34.634	0.792
34.7045	0.788
34.775	0.79
34.8455	0.79
34.916	0.79
34.9865	0.792
35.0569	0.792
35.1274	0.793
35.1979	0.793
35.2684	0.793
35.3389	0.792
35.4094	0.792
35.4798	0.79
35.5503	0.783
35.6208	0.776
35.6913	0.776
35.7618	0.774
35.8323	0.767
35.9027	0.763
35.9732	0.758
36.0437	0.753
36.1142	0.744
36.1847	0.738
36.2552	0.733
36.3257	0.731
36.3961	0.731
36.4666	0.731
36.5371	0.73
36.6076	0.728
36.6781	0.726
36.7486	0.728
36.819	0.728
36.8895	0.728
36.96	0.726
37.0305	0.717
37.101	0.705
37.1715	0.701
37.242	0.698
37.3124	0.692
37.3829	0.687
37.4534	0.678
37.5239	0.673
37.5944	0.671
37.6649	0.666
37.7353	0.666
37.8058	0.666
37.8763	0.662
37.9468	0.653
38.0173	0.65
