Infrared Spectrum: Butane, 1,3-dichloro-
Formula: C 4 H 8 Cl 2
CAS: 1190-22-3
State: gas
Origin: Sadtler Research Labs Under US-EPA Contract
1/CM	ABSORBANCE
450	0.0997568
462	0.0239245
474	0.00939893
486	0.0151665
498	0.0267727
510	0.0182994
522	0.0262743
534	0.0249214
546	0.0113214
558	0.0114638
570	0.0131015
582	0.0211476
594	0.052691
606	0.120192
618	0.244728
630	0.266873
642	0.122969
654	0.11414
666	0.275844
678	0.343844
690	0.131015
702	0.0526198
714	0.0360292
726	0.0412271
738	0.0756899
750	0.165692
762	0.183493
774	0.123112
786	0.0697799
798	0.0865841
810	0.187836
822	0.1313
834	0.0520501
846	0.0358868
858	0.0306889
870	0.0427936
882	0.0937757
894	0.150383
906	0.116988
918	0.0860144
930	0.0577464
942	0.0470658
954	0.0503412
966	0.0605234
978	0.102747
990	0.150098
1002	0.143191
1014	0.132582
1026	0.118127
1038	0.115066
1050	0.11414
1062	0.09285
1074	0.0664333
1086	0.0692815
1098	0.0803181
1110	0.12361
1122	0.154157
1134	0.0946301
1146	0.0447873
1158	0.0578176
1170	0.0602386
1182	0.0651517
1194	0.0593841
1206	0.0840919
1218	0.111648
1230	0.12005
1242	0.171673
1254	0.257474
1266	0.347048
1278	0.36136
1290	0.314722
1302	0.252917
1314	0.188548
1326	0.156435
1338	0.109013
1350	0.0978343
1362	0.104599
1374	0.131443
1386	0.17388
1398	0.110366
1410	0.0590281
1422	0.0954134
1434	0.153801
1446	0.27321
1458	0.27855
1470	0.146965
1482	0.053047
1494	0.0189403
1506	0.0110366
1518	0.00968374
1530	0.0071204
1542	0.00512669
1554	0.00576752
1566	0.00576752
1578	0.00405863
1590	0.0052691
1602	0.0052691
1614	0.00491308
1626	0.00569632
1638	0.00434344
1650	0.00583873
1662	0.00683558
1674	0.00655077
1686	0.00576752
1698	0.00519789
1710	0.0052691
1722	0.00384502
1734	0.00299057
1746	0.0036314
1758	0.0052691
1770	0.00448585
1782	0.00370261
1794	0.0035602
1806	0.00313298
1818	0.00270575
1830	0.00313298
1842	0.00249214
1854	0.00263455
1866	0.00320418
1878	0.00320418
1890	0.0035602
1902	0.00320418
1914	0.00242094
1926	0.00227853
1938	0.00327538
1950	0.00220732
1962	0.00284816
1974	0.00291936
1986	0.00270575
1998	0.003489
2010	0.00341779
2022	0.00441465
2034	0.00555391
2046	0.00548271
2058	0.00612354
2070	0.00612354
2082	0.00420104
2094	0.00256334
2106	0.00277696
2118	0.003489
2130	0.0035602
2142	0.00306177
2154	0.00320418
2166	0.0036314
2178	0.0036314
2190	0.00427224
2202	0.00505548
2214	0.00569632
2226	0.00505548
2238	0.00512669
2250	0.00583873
2262	0.00676438
2274	0.00697799
2286	0.0054115
2298	0.00327538
2310	0.00163769
2322	0.000284816
2334	0.00234973
2346	0.00690679
2358	0.000783244
2370	0.0140272
2382	0.0116063
2394	0.00797485
2406	0.00769003
2418	0.00733401
2430	0.00769003
2442	0.00797485
2454	0.00811726
2466	0.00968374
2478	0.00932772
2490	0.00811726
2502	0.00655077
2514	0.00669318
2526	0.00676438
2538	0.00754762
2550	0.00833087
2562	0.00868689
2574	0.00740522
2586	0.00790364
2598	0.00733401
2610	0.00669318
2622	0.00626595
2634	0.00655077
2646	0.0071916
2658	0.00583873
2670	0.00598114
2682	0.00875809
2694	0.010111
2706	0.0109654
2718	0.0131015
2730	0.0158785
2742	0.0172314
2754	0.017801
2766	0.0140272
2778	0.0123183
2790	0.0124607
2802	0.0136712
2814	0.0171602
2826	0.0315434
2838	0.0395894
2850	0.0439329
2862	0.0634428
2874	0.112004
2886	0.143618
2898	0.143334
2910	0.184418
2922	0.265449
2934	0.37553
2946	0.361859
2958	0.29215
2970	0.463894
2982	0.71204
2994	0.611286
3006	0.342349
3018	0.139417
3030	0.0459266
3042	0.0195099
3054	0.0134576
3066	0.0106094
3078	0.0102534
3090	0.00947013
3102	0.0071916
3114	0.00683558
3126	0.00590993
3138	0.0054115
3150	0.00491308
3162	0.00412983
3174	0.00441465
3186	0.00590993
3198	0.00633716
3210	0.00790364
3222	0.00797485
3234	0.00633716
3246	0.00377381
3258	0.00220732
3270	0.0018513
3282	0.00242094
3294	0.00341779
3306	0.00427224
3318	0.00576752
3330	0.00605234
3342	0.00405863
3354	0.00256334
3366	0.00242094
3378	0.00242094
3390	0.00199371
3402	0.00192251
3414	0.00270575
3426	0.00156649
3438	0.00234973
3450	0.00220732
3462	0.00206492
3474	0.000925652
3486	0.00320418
3498	0.000925652
3510	0.00113926
3522	0.00113926
3534	0.00341779
3546	0.00135288
3558	0.00320418
3570	0.00121047
3582	0.00163769
3594	0.00405863
3606	0.00249214
3618	0.00512669
3630	0.00498428
3642	0.00583873
3654	0.0106094
3666	0.011535
3678	0.00804605
3690	0.00213612
3702	0.0036314
3714	0.00199371
3726	0.0017089
3738	0.00284816
3750	0.00106806
3762	0.00113926
3774	0.00035602
3786	0.00405863
3798	0
3810	0.00035602
3822	0.00491308
3834	0.00249214
3846	0.000996856
3858	0.00690679
3870	0.000284816
3882	0.00156649
3894	0.00284816
3906	0.00441465
3918	0.000854448
3930	0.000640836
3942	0.00242094
3954	0.00427224
3966	0.00334659
