Infrared Spectrum: Propanenitrile
Formula: C 3 H 5 N
CAS: 107-12-0
State: gas
Origin: Sadtler Research Labs Under US-EPA Contract
1/CM	ABSORBANCE
450	0.00969164
462	0.00793947
474	0.00722766
486	0.00147839
498	0.00372334
510	0.00339481
522	0.00930835
534	0.00991066
546	0.0122104
558	0.00525648
570	0.00273775
582	0.00421614
594	0.00350432
606	0.00481844
618	0.00574927
630	0.00427089
642	0.00416138
654	0.00344956
666	0.00454466
678	0.00503746
690	0.00793947
702	0.0128674
714	0.0213545
726	0.0237637
738	0.0265562
750	0.0256253
762	0.024804
774	0.0246945
786	0.0470893
798	0.0315389
810	0.0271585
822	0.0220115
834	0.0143458
846	0.0100749
858	0.00969164
870	0.00739192
882	0.00651585
894	0.0049827
906	0.00448991
918	0.00344956
930	0.00290201
942	0.00262824
954	0.00257348
966	0.00388761
978	0.00755619
990	0.0124294
1002	0.0151671
1014	0.0164265
1026	0.0203141
1038	0.0246397
1050	0.0396426
1062	0.074412
1074	0.0791757
1086	0.103432
1098	0.0675677
1110	0.0396974
1122	0.0238184
1134	0.0168098
1146	0.0178501
1158	0.024585
1170	0.048951
1182	0.0821873
1194	0.084925
1206	0.0545907
1218	0.0393688
1230	0.0295129
1242	0.0249683
1254	0.0232709
1266	0.0255706
1278	0.0280346
1290	0.0308271
1302	0.0558501
1314	0.081585
1326	0.0632968
1338	0.0827896
1350	0.0360835
1362	0.0286916
1374	0.0317579
1386	0.0402997
1398	0.0513054
1410	0.0753976
1422	0.109565
1434	0.144498
1446	0.15868
1458	0.198432
1470	0.146524
1482	0.140118
1494	0.0989423
1506	0.0617636
1518	0.0378905
1530	0.0211902
1542	0.0168098
1554	0.00980115
1566	0.00728242
1578	0.00837752
1590	0.00782996
1602	0.00772046
1614	0.00952737
1626	0.0112248
1638	0.01117
1650	0.0122104
1662	0.00903457
1674	0.00930835
1686	0.00941786
1698	0.00810374
1710	0.0070634
1722	0.0118271
1734	0.0242017
1746	0.0591354
1758	0.0724409
1770	0.0592997
1782	0.0217377
1794	0.00892506
1806	0.00520172
1818	0.00405187
1830	0.00432565
1842	0.00334006
1854	0.00361383
1866	0.00301153
1878	0.002683
1890	0.00383285
1902	0.00306628
1914	0.00290201
1926	0.00284726
1938	0.002683
1950	0.00131412
1962	0.00164265
1974	0.00131412
1986	0.00186167
1998	0.00224495
2010	0.00202593
2022	0.0027925
2034	0.00388761
2046	0.00405187
2058	0.00399711
2070	0.00290201
2082	0.00125936
2094	0.00125936
2106	0.00131412
2118	0.000930835
2130	0.00120461
2142	0.00136888
2154	0.00186167
2166	0.00262824
2178	0.00312103
2190	0.00366858
2202	0.00492795
2214	0.00574927
2226	0.0115533
2238	0.0242017
2250	0.0309366
2262	0.0312651
2274	0.0257349
2286	0.00689913
2298	0.00585879
2310	0.00525648
2322	0.00553026
2334	0.00481844
2346	0.0043804
2358	0.00459942
2370	0.00711815
2382	0.00750143
2394	0.00624207
2406	0.0065706
2418	0.00416138
2430	0.00366858
2442	0.00481844
2454	0.00607781
2466	0.00624207
2478	0.0059683
2490	0.00399711
2502	0.00481844
2514	0.00465417
2526	0.0048732
2538	0.00416138
2550	0.00339481
2562	0.00306628
2574	0.00246398
2586	0.002683
2598	0.00355908
2610	0.00503746
2622	0.00804898
2634	0.00695388
2646	0.00772046
2658	0.00224495
2670	0.00087608
2682	0.000711815
2694	0.000602305
2706	0.00131412
2718	0.00224495
2730	0.00350432
2742	0.00733717
2754	0.011389
2766	0.0123199
2778	0.0153314
2790	0.0114985
2802	0.0116628
2814	0.0132507
2826	0.0171931
2838	0.0247493
2850	0.0370144
2862	0.0383833
2874	0.0540979
2886	0.110879
2898	0.130974
2910	0.165415
2922	0.168098
2934	0.180692
2946	0.289709
2958	0.313253
2970	0.400204
2982	0.455945
2994	0.456
3006	0.462461
3018	0.357714
3030	0.188302
3042	0.103268
3054	0.0487867
3066	0.0254063
3078	0.0198761
3090	0.0170836
3102	0.0204236
3114	0.0137435
3126	0.0105677
3138	0.0108962
3150	0.00996541
3162	0.0100749
3174	0.0119366
3186	0.0141815
3198	0.0161527
3210	0.0158789
3222	0.0114438
3234	0.00815849
3246	0.00761095
3258	0.0070634
3270	0.00662536
3282	0.00421614
3294	0.00175216
3306	0.00262824
3318	0.00344956
3330	0.00317579
3342	0.00350432
3354	0.00251873
3366	0.00197118
3378	0.00175216
3390	0.00202593
3402	0.00098559
3414	0.00131412
3426	0.00114985
3438	0.0010951
3450	0.00180692
3462	0.00098559
3474	0.00147839
3486	0.00186167
3498	0.00153314
3510	0.00186167
3522	0.00312103
3534	0.00262824
3546	0.00416138
3558	0.00257348
3570	0.00427089
3582	0.00235447
3594	0.0043804
3606	0.00131412
3618	0.00295677
3630	0.00372334
3642	0.0016974
3654	0.00284726
3666	0.000492795
3678	0.00651585
3690	0.00306628
3702	0.00191643
3714	0.00514697
3726	0.00432565
3738	0.00388761
3750	0.00416138
3762	0.00251873
3774	0.00295677
3786	0.00191643
3798	0.00197118
3810	0.00147839
3822	0.00416138
3834	0.000821325
3846	0.0016974
3858	0.00208069
3870	0.00021902
3882	0.00021902
3894	0.00021902
3906	0.00213545
3918	0.00147839
3930	0.00191643
3942	0.00131412
3954	0.00213545
3966	0.00257348
