Infrared Spectrum: ETHANE, 1-BROMO-2-CHLORO-
Formula: C2 H4 Br Cl
CAS: 107-04-0
State: SOLUTION (10% CCl4 FOR 2.6-7.5, 10% CS2 FOR 7.5-26 MICRON)
Class: COBLENTZ III
Instrument: DOW KBr FOREPRISM-GRATING
Instrument parameters: BLAZED AT 3.5, 12.0, 20.0 MICRON AND CHANGED AT 5.0, 7.5, 14.9 MICRON
Sampling: TRANSMISSION
Path length: 0.011 CM, 0.011 CM
Resolution: 2
Origin: DOW CHEMICAL COMPANY
1/CM	TRANSMITTANCE
3806	0.8698
3797	0.8689
3788	0.8678
3779	0.8668
3770	0.8661
3761	0.8653
3752	0.8648
3743	0.8646
3734	0.8644
3725	0.8643
3716	0.8642
3707	0.864
3698	0.8639
3689	0.8638
3680	0.8637
3671	0.864
3662	0.8644
3653	0.8647
3644	0.8651
3635	0.8654
3626	0.8658
3617	0.8661
3608	0.8665
3599	0.8668
3590	0.8671
3581	0.8675
3572	0.8678
3563	0.8682
3554	0.8686
3545	0.8688
3536	0.8691
3527	0.8692
3518	0.8694
3509	0.8696
3500	0.8698
3491	0.87
3482	0.8703
3473	0.8707
3464	0.8712
3455	0.8716
3446	0.8721
3437	0.8725
3428	0.873
3419	0.8734
3410	0.8739
3401	0.8742
3392	0.8745
3383	0.8748
3374	0.8751
3365	0.8753
3356	0.8756
3347	0.8758
3338	0.8761
3329	0.8764
3320	0.8766
3311	0.8767
3302	0.8768
3293	0.877
3284	0.8771
3275	0.8774
3266	0.8775
3257	0.8771
3248	0.8767
3239	0.8761
3230	0.8756
3221	0.875
3212	0.8744
3203	0.8739
3194	0.8733
3185	0.8728
3176	0.8721
3167	0.8721
3158	0.8725
3149	0.873
3140	0.8734
3131	0.8737
3122	0.8742
3113	0.8734
3104	0.8723
3095	0.8713
3086	0.8702
3077	0.8691
3068	0.868
3059	0.8671
3050	0.8666
3041	0.866
3032	0.8645
3023	0.8614
3014	0.8567
3005	0.8513
2996	0.8273
2987	0.7412
2978	0.7822
2969	0.779
2960	0.7806
2951	0.7925
2942	0.8292
2933	0.8573
2924	0.8681
2915	0.8712
2906	0.8715
2897	0.8718
2888	0.8721
2879	0.846
2870	0.8587
2861	0.8664
2852	0.8748
2843	0.8725
2834	0.8728
2825	0.8771
2816	0.8814
2807	0.883
2798	0.8846
2789	0.8847
2780	0.8846
2771	0.8846
2762	0.8845
2753	0.8845
2744	0.8833
2735	0.8787
2726	0.8786
2717	0.8813
2708	0.8818
2699	0.8825
2690	0.883
2681	0.8828
2672	0.882
2663	0.8812
2654	0.8807
2645	0.8818
2636	0.8842
2627	0.8857
2618	0.8854
2609	0.8848
2600	0.8843
2591	0.8843
2582	0.8842
2573	0.8842
2564	0.8841
2555	0.8842
2546	0.8849
2537	0.8856
2528	0.8863
2519	0.887
2510	0.8873
2501	0.8875
2492	0.887
2483	0.8853
2474	0.8857
2465	0.8865
2456	0.8873
2447	0.8875
2438	0.8864
2429	0.8853
2420	0.8843
2411	0.8832
2402	0.8823
2393	0.8795
2384	0.8768
2375	0.8757
2366	0.8747
2357	0.8739
2348	0.873
2339	0.8713
2330	0.8697
2321	0.868
2312	0.8664
2303	0.8643
2294	0.8624
2285	0.863
2276	0.8653
2267	0.8684
2258	0.8712
2249	0.8739
2240	0.8757
2231	0.877
2222	0.8774
2213	0.8762
2204	0.8752
2195	0.8753
2186	0.8754
2177	0.8754
2168	0.8753
2159	0.8763
2150	0.8774
2141	0.8783
2132	0.8791
2123	0.8799
2114	0.881
2105	0.8823
2096	0.8832
2087	0.8832
2078	0.8808
2069	0.8774
2060	0.8796
2051	0.8784
2042	0.8811
2033	0.8809
2024	0.8805
2015	0.8795
2006	0.8808
1997	0.8908
1988	0.8934
1979	0.8966
1970	0.8987
1961	0.9884
1952	0.9171
1943	0.9073
1934	0.9068
1925	0.9065
1916	0.9057
1907	0.9031
1898	0.9043
1889	0.9032
1880	0.9001
1871	0.8993
1862	0.8985
1853	0.8978
1844	0.8982
1835	0.8987
1826	0.8992
1817	0.9004
1808	0.9017
1799	0.9028
1790	0.9034
1781	0.9036
1772	0.9039
1763	0.9041
1754	0.9044
1745	0.9044
1736	0.9042
1727	0.904
1718	0.9038
1709	0.9039
1700	0.9045
1691	0.9052
1682	0.9059
1673	0.9068
1664	0.908
1655	0.9092
1646	0.9091
1637	0.9042
1628	0.8975
1619	0.8834
1610	0.8639
1601	0.794
1592	0.7217
1583	0.6697
1574	0.6511
1565	0.6001
1556	0.51
1547	0.4857
1538	0.5428
1529	0.6289
1520	0.6868
1511	0.7436
1502	0.7838
1493	0.8187
1484	0.8499
1475	0.8645
1466	0.8573
1457	0.7997
1448	0.6482
1439	0.7265
1430	0.7882
1421	0.7143
1412	0.8702
1403	0.8866
1394	0.8931
1385	0.8918
1376	0.8885
1367	0.8864
1358	0.8895
1349	0.8981
1340	0.8946
1331	0.8928
1322	0.8939
1313	0.8867
1304	0.8208
1295	0.7953
1286	0.8071
1277	0.8349
1268	0.8108
1259	0.346
1250	0.8577
1241	0.882
1232	0.8924
1223	0.8871
1214	0.8241
1205	0.3299
1196	0.6067
1187	0.7958
1178	0.8747
1169	0.919
1160	0.9308
1151	0.9333
1142	0.9317
1133	0.9286
1124	0.9186
1115	0.9211
1106	0.8967
1097	0.9236
1088	0.9355
1079	0.9401
1070	0.9417
1061	0.9397
1052	0.8962
1043	0.9343
1034	0.9456
1025	0.9351
1016	0.9357
1007	0.9444
998	0.9439
989	0.9435
980	0.943
971	0.9421
962	0.9418
953	0.9428
944	0.9437
935	0.9357
926	0.8959
917	0.8601
908	0.9312
899	0.9368
890	0.9116
881	0.8658
872	0.8259
863	0.6815
854	0.6411
845	0.8301
836	0.9134
827	0.9449
818	0.9453
809	0.942
800	0.9399
791	0.936
782	0.927
773	0.905
764	0.8725
755	0.8675
746	0.8575
737	0.5782
728	0.5358
719	0.8334
710	0.9074
701	0.9328
692	0.9375
683	0.918
674	0.806
665	0.7465
656	0.8138
647	0.7151
638	0.1351
629	0.4515
620	0.8281
611	0.9204
602	0.9561
593	0.9637
584	0.9586
575	0.8206
566	0.9388
557	0.9734
548	0.9813
539	0.9815
530	0.9804
521	0.9803
512	0.978
503	0.9751
494	0.9721
485	0.969
476	0.9643
467	0.9571
458	0.9477
449	0.9357
440	0.9156
431	0.8932
422	0.8365
413	0.7618
404	0.5622
395	0.5289
