Infrared Spectrum: Ethane, 1-bromo-2-chloro-
Formula: C 2 H 4 Br Cl
CAS: 107-04-0
State: gas
Origin: Sadtler Research Labs Under US-EPA Contract
1/CM	ABSORBANCE
450	0.00445043
462	0.00470843
474	0.00322495
486	0.00238646
498	0.00296695
510	0.000902986
522	0.00264446
534	0.00883636
546	0.0103198
558	0.0136738
570	0.0374094
582	0.0495997
594	0.0196077
606	0.0207042
618	0.0818492
630	0.374868
642	0.64499
654	0.286827
666	0.161183
678	0.120484
690	0.0545662
702	0.0163827
714	0.0181242
726	0.0897181
738	0.326623
750	0.291019
762	0.0254771
774	0.0184467
786	0.0149638
798	0.0128998
810	0.00973935
822	0.00961035
834	0.0118033
846	0.0231551
858	0.0771408
870	0.0749478
882	0.0317335
894	0.0207042
906	0.0188982
918	0.0265091
930	0.0296695
942	0.0225746
954	0.0130933
966	0.00728839
978	0.00503092
990	0.00580491
1002	0.00703039
1014	0.0107713
1026	0.0119323
1038	0.0133513
1050	0.0204462
1062	0.0165117
1074	0.00722389
1086	0.00909436
1098	0.0125773
1110	0.0150283
1122	0.0138028
1134	0.0127708
1146	0.0125128
1158	0.0147058
1170	0.0194787
1182	0.0431498
1194	0.229165
1206	0.434981
1218	0.166988
1230	0.0423758
1242	0.0363774
1254	0.101973
1266	0.182274
1278	0.146671
1290	0.0584361
1302	0.0607581
1314	0.0570816
1326	0.0192207
1338	0.0121903
1350	0.0119323
1362	0.0128998
1374	0.00844937
1386	0.00786888
1398	0.0114163
1410	0.0211557
1422	0.0486322
1434	0.0782373
1446	0.0781083
1458	0.0599841
1470	0.0394089
1482	0.0269606
1494	0.0185112
1506	0.0112873
1518	0.00548241
1530	0.00341845
1542	0.00425693
1554	0.00251546
1566	0.00348295
1578	0.00341845
1590	0.00245096
1602	0.00187047
1614	0.00154798
1626	0.00199947
1638	0.00219297
1650	0.00245096
1662	0.00206397
1674	0.00270896
1686	0.00303145
1698	0.00264446
1710	0.00270896
1722	0.00316045
1734	0.00406344
1746	0.00432143
1758	0.00548241
1770	0.00690139
1782	0.00490192
1794	0.00419243
1806	0.00354744
1818	0.00257996
1830	0.00245096
1842	0.00245096
1854	0.00257996
1866	0.00225746
1878	0.00212847
1890	0.00154798
1902	0.00141898
1914	0.00245096
1926	0.00303145
1938	0.00303145
1950	0.00199947
1962	0.00109648
1974	0.00154798
1986	0.00109648
1998	0.00122548
2010	0.00290245
2022	0.00419243
2034	0.00348295
2046	0.00251546
2058	0.00257996
2070	0.00251546
2082	0.00167697
2094	0.00225746
2106	0.00251546
2118	0.00238646
2130	0.00238646
2142	0.00270896
2154	0.00270896
2166	0.00341845
2178	0.00419243
2190	0.00464393
2202	0.00477293
2214	0.00425693
2226	0.00386994
2238	0.00328945
2250	0.00219297
2262	0.00212847
2274	0.00212847
2286	0.00219297
2298	0.00116098
2310	0
2322	0.000128998
2334	0.00135448
2346	0.00341845
2358	0.00116098
2370	0.00728839
2382	0.00535342
2394	0.00438593
2406	0.00393444
2418	0.00354744
2430	0.00354744
2442	0.00380544
2454	0.00386994
2466	0.00361194
2478	0.00341845
2490	0.00354744
2502	0.00283796
2514	0.00187047
2526	0.00141898
2538	0.00109648
2550	0.00116098
2562	0.00141898
2574	0.00135448
2586	0.000773988
2598	0.00064499
2610	0.00103198
2622	0.00116098
2634	0.00154798
2646	0.00264446
2658	0.00354744
2670	0.00219297
2682	0.00219297
2694	0.00322495
2706	0.00270896
2718	0.00257996
2730	0.00490192
2742	0.00554691
2754	0.00322495
2766	0.00187047
2778	0.00180597
2790	0.00187047
2802	0.00193497
2814	0.00245096
2826	0.00367644
2838	0.00728839
2850	0.0109003
2862	0.0118033
2874	0.0167052
2886	0.0245096
2898	0.0171567
2910	0.00806237
2922	0.0100618
2934	0.0201882
2946	0.0439883
2958	0.0710134
2970	0.0864932
2982	0.0949425
2994	0.096168
3006	0.0686269
3018	0.0384414
3030	0.0283796
3042	0.0197367
3054	0.0127063
3066	0.00819137
3078	0.00561141
3090	0.00438593
3102	0.00341845
3114	0.00251546
3126	0.00174147
3138	0.00135448
3150	0.00135448
3162	0.00135448
3174	0.00116098
3186	0.00212847
3198	0.00141898
3210	0.00148348
3222	0.00109648
3234	0.00141898
3246	0.00148348
3258	0.00128998
3270	0.00161247
3282	0.00122548
3294	0.00109648
3306	0.00128998
3318	0.00135448
3330	0.00122548
3342	0.00174147
3354	0.00174147
3366	0.00154798
3378	0.00116098
3390	0.00135448
3402	0.00128998
3414	0.00167697
3426	0.00116098
3438	0.00167697
3450	0.00109648
3462	0.00116098
3474	0.00180597
3486	0.000515992
3498	0.000838487
3510	0.00109648
3522	0.000902986
3534	0.000838487
3546	0.00064499
3558	0.000967485
3570	0.00116098
3582	0.00116098
3594	0.00161247
3606	0.000322495
3618	0.00167697
3630	0.00290245
3642	0.00225746
3654	0.00277346
3666	0
3678	0.00277346
3690	0.00128998
3702	0.00154798
3714	0.00251546
3726	0.00225746
3738	0.00354744
3750	0.00296695
3762	0.00283796
3774	0.00290245
3786	0.00193497
3798	0.000580491
3810	0.00199947
3822	0.00128998
3834	0
3846	0.00109648
3858	0.00199947
3870	0.000709489
3882	0
3894	0.000128998
3906	0.00167697
3918	0.00064499
3930	0.000515992
3942	0
3954	0.00116098
3966	0.000515992
