Infrared Spectrum: METHYL CHLORIDE
Formula: C H3 Cl
CAS: 74-87-3
State: GAS (200 mmHg DILUTED TO A TOTAL PRESSURE OF 600 mmHg WITH NITROGEN)
Class: COBLENTZ
Instrument: DOW KBr FOREPRISM
Instrument parameters: GRATING CHANGED AT 5.0, 7.5, 15.0 MICRON
Sampling: TRANSMISSION
Path length: 5 CM
Resolution: 4
Origin: DOW CHEMICAL COMPANY
1/CM	TRANSMITTANCE
450.375	1.054
458.802	1.051
467.229	1.051
475.656	1.057
484.083	1.061
492.51	1.071
500.937	1.078
509.364	1.08
517.791	1.077
526.218	1.073
534.645	1.067
543.072	1.059
551.499	1.052
559.926	1.058
568.353	1.059
576.78	1.067
585.207	1.07
593.634	1.068
602.061	1.068
610.488	1.062
618.915	1.062
627.342	1.059
635.769	1.061
644.196	1.058
652.623	1.026
661.05	0.976
669.477	0.969
677.904	0.9069
686.331	0.733
694.758	0.59
703.185	0.396
711.612	0.1841
720.039	0.195
728.466	0.176
736.893	0.517
745.32	0.097
753.747	0.152
762.174	0.72
770.601	1.023
779.028	1.033
787.455	1.029
795.882	1.032
804.309	1.033
812.735	1.033
821.162	1.035
829.589	1.036
838.016	1.039
846.443	1.039
854.87	1.039
863.297	1.038
871.724	1.036
880.151	1.036
888.578	1.033
897.005	1.035
905.432	1.03
913.859	1.033
922.286	1.032
930.713	1.026
939.14	1.019
947.567	1
955.994	0.937
964.421	0.897
972.848	0.959
981.275	0.878
989.702	0.8591
998.129	0.6983
1006.56	0.9339
1014.98	0.94
1023.41	0.94
1031.84	0.84
1040.26	0.6694
1048.69	0.828
1057.12	0.9629
1065.55	0.986
1073.97	0.98
1082.4	1
1090.83	1.024
1099.25	1.036
1107.68	1.048
1116.11	1.057
1124.53	1.061
1132.96	1.062
1141.39	1.059
1149.82	1.062
1158.24	1.064
1166.67	1.062
1175.1	1.062
1183.52	1.065
1191.95	1.067
1200.38	1.07
1208.8	1.067
1217.23	1.071
1225.66	1.07
1234.08	1.07
1242.51	1.049
1250.94	1.045
1259.37	1.039
1267.79	0.995
1276.22	0.942
1284.65	0.91
1293.07	0.9449
1301.5	0.836
1309.93	0.7959
1318.35	0.814
1326.78	0.681
1335.21	0.524
1343.64	0.448
1352.06	0.649
1360.49	0.561
1368.92	0.418
1377.34	0.418
1385.77	0.7578
1394.2	0.8309
1402.62	0.7378
1411.05	0.839
1419.48	0.836
1427.91	0.416
1436.33	0.78
1444.76	0.795
1453.19	0.7261
1461.61	0.5018
1470.04	0.78
1478.47	0.78
1486.89	0.5191
1495.32	0.812
1503.75	0.809
1512.18	0.8269
1520.6	0.72
1529.03	0.877
1537.46	0.896
1545.88	0.7553
1554.31	0.904
1562.74	0.938
1571.16	0.964
1579.59	0.953
1588.02	0.948
1596.45	0.975
1604.87	0.982
1613.3	0.983
1621.73	0.983
1630.15	0.986
1638.58	0.989
1647.01	0.986
1655.43	0.991
1663.86	0.991
1672.29	0.992
1680.72	0.992
1689.14	0.991
1697.57	0.998
1706	0.994
1714.42	0.995
1722.85	0.992
1731.28	0.997
1739.7	0.992
1748.13	0.992
1756.56	0.991
1764.99	0.985
1773.41	0.988
1781.84	0.986
1790.27	0.983
1798.69	0.986
1807.12	0.983
1815.55	0.985
1823.97	0.982
1832.4	0.982
1840.83	0.982
1849.26	0.982
1857.68	0.98
1866.11	0.98
1874.54	0.982
1882.96	0.98
1891.39	0.98
1899.82	0.98
1908.24	0.979
1916.67	0.979
1925.1	0.979
1933.52	0.979
1941.95	0.979
1950.38	0.98
1958.81	0.979
1967.23	0.979
1975.66	0.979
1984.09	0.979
1992.51	0.98
2000.94	0.9795
2009.37	0.979
2017.79	0.979
2026.22	0.979
2034.65	0.979
2043.08	0.98
2051.5	0.978
2059.93	0.976
2068.36	0.976
2076.78	0.976
2085.21	0.978
2093.64	0.976
2102.06	0.978
2110.49	0.978
2118.92	0.979
2127.35	0.979
2135.77	0.982
2144.2	0.983
2152.63	0.9795
2161.05	0.982
2169.48	0.9825
2177.91	0.982
2186.33	0.982
2194.76	0.98
2203.19	0.98
2211.62	0.982
2220.04	0.982
2228.47	0.982
2236.9	0.979
2245.32	0.979
2253.75	0.979
2262.18	0.979
2270.6	0.9785
2279.03	0.98
2287.46	0.982
2295.89	0.978
2304.31	0.978
2312.74	0.98
2321.17	0.9839
2329.59	0.988
2338.02	0.9885
2346.45	0.9791
2354.87	0.9804
2363.3	0.9909
2371.73	0.9833
2380.16	0.976
2388.58	0.9711
2397.01	0.972
2405.44	0.978
2413.86	0.9761
2422.29	0.975
2430.72	0.973
2439.14	0.97
2447.57	0.969
2456	0.967
2464.43	0.966
2472.85	0.967
2481.28	0.967
2489.71	0.969
2498.13	0.9729
2506.56	0.978
2514.99	0.978
2523.41	0.979
2531.84	0.98
2540.27	0.983
2548.7	0.985
2557.12	0.985
2565.55	0.985
2573.98	0.985
2582.4	0.986
2590.83	0.986
2599.26	0.988
2607.68	0.9884
2616.11	0.989
2624.54	0.989
2632.96	0.989
2641.39	0.988
2649.82	0.988
2658.25	0.986
2666.67	0.986
2675.1	0.986
2683.53	0.985
2691.95	0.983
2700.38	0.985
2708.81	0.9842
2717.23	0.9802
2725.66	0.9786
2734.09	0.9762
2742.52	0.976
2750.94	0.976
2759.37	0.976
2767.8	0.976
2776.22	0.976
2784.65	0.976
2793.08	0.976
2801.5	0.976
2809.93	0.9726
2818.36	0.9672
2826.79	0.9622
2835.21	0.9531
2843.64	0.9279
2852.07	0.8787
2860.49	0.7199
2868.92	0.6279
2877.35	0.6888
2885.77	0.7721
2894.2	0.6494
2902.63	0.7354
2911.06	0.7958
2919.48	0.8122
2927.91	0.84
2936.34	0.5647
2944.76	0.2974
2953.19	0.1667
2961.62	0.1971
2970.04	0.3232
2978.47	0.1368
2986.9	0.104
2995.33	0.1738
3003.75	0.3979
3012.18	0.5825
3020.61	0.3403
3029.03	0.5789
3037.46	0.7093
3045.89	0.745
3054.31	0.7202
3062.74	0.6139
3071.17	0.5314
3079.6	0.6242
3088.02	0.6108
3096.45	0.768
3104.88	0.7638
3113.3	0.8185
3121.73	0.8594
3130.16	0.8361
3138.58	0.9074
3147.01	0.935
3155.44	0.9479
3163.87	0.9594
3172.29	0.9669
3180.72	0.9724
3189.15	0.975
3197.57	0.975
3206	0.975
3214.43	0.975
3222.85	0.975
3231.28	0.975
3239.71	0.975
3248.14	0.975
3256.56	0.975
3264.99	0.975
3273.42	0.975
3281.84	0.975
3290.27	0.975
3298.7	0.973
3307.12	0.972
3315.55	0.972
3323.98	0.9728
3332.4	0.975
3340.83	0.975
3349.26	0.9743
3357.69	0.972
3366.11	0.97
3374.54	0.97
3382.97	0.969
3391.39	0.97
3399.82	0.9707
3408.25	0.9728
3416.67	0.975
3425.1	0.975
3433.53	0.975
3441.96	0.975
3450.38	0.976
3458.81	0.976
3467.24	0.978
3475.66	0.9788
3484.09	0.978
3492.52	0.979
3500.94	0.979
3509.37	0.98
3517.8	0.98
3526.23	0.982
3534.65	0.982
3543.08	0.982
3551.51	0.982
3559.93	0.9828
3568.36	0.983
3576.79	0.982
3585.21	0.983
3593.64	0.983
3602.07	0.982
3610.5	0.982
3618.92	0.983
3627.35	0.983
3635.78	0.982
3644.2	0.9792
3652.63	0.9757
3661.06	0.973
3669.48	0.9711
3677.91	0.967
3686.34	0.961
3694.77	0.9636
3703.19	0.9584
3711.62	0.9673
3720.05	0.9753
3728.47	0.979
3736.9	0.976
3745.33	0.975
3753.75	0.975
3762.18	0.975
3770.61	0.975
3779.04	0.975
3787.46	0.975
3795.89	0.973
