Infrared Spectrum: N-ETHYLACETAMIDE
Formula: C4 H9 N O
CAS: 625-50-3
State: SOLUTION (10% IN CCl4 FOR 4000-1340 CM^-^1, 10% IN CS2 FOR 1340-600 CM^-^1)
Boiling point: 209 C
Class: COBLENTZ III
Instrument: BECKMAN IR-7 (GRATING)
Instrument parameters: GRATING CHANGES AT 3000, 2200, 1150 CM^-^1
Sampling: TRANSMISSION
Path length: 0.010 CM, 0.011 CM
Resolution: 4
Origin: WESTERN REGIONAL RES. USDA
1/CM	TRANSMITTANCE
600.661	0.251
609.258	0.4309
617.855	0.475
626.452	0.652
635.049	0.719
643.646	0.699
652.243	0.658
660.841	0.661
669.438	0.606
678.035	0.575
686.632	0.532
695.229	0.501
703.826	0.47
712.423	0.455
721.02	0.458
729.617	0.477
738.214	0.511
746.811	0.543
755.408	0.586
764.005	0.602
772.603	0.606
781.2	0.672
789.797	0.709
798.394	0.731
806.991	0.775
815.588	0.808
824.185	0.825
832.782	0.826
841.379	0.779
849.976	0.727
858.573	0.733
867.17	0.766
875.767	0.794
884.365	0.792
892.962	0.822
901.559	0.853
910.156	0.863
918.753	0.83
927.35	0.682
935.947	0.676
944.544	0.72
953.141	0.82
961.738	0.845
970.335	0.834
978.932	0.795
987.529	0.74
996.127	0.64
1004.72	0.705
1013.32	0.809
1021.92	0.8
1030.51	0.656
1039.11	0.627
1047.71	0.777
1056.31	0.797
1064.9	0.752
1073.5	0.686
1082.1	0.803
1090.69	0.829
1099.29	0.808
1107.89	0.717
1116.49	0.638
1125.08	0.717
1133.68	0.709
1142.28	0.5321
1150.87	0.253
1159.47	0.637
1168.07	0.736
1176.67	0.766
1185.26	0.775
1193.86	0.771
1202.46	0.769
1211.05	0.769
1219.65	0.75
1228.25	0.705
1236.84	0.666
1245.44	0.593
1254.04	0.494
1262.64	0.405
1271.23	0.3
1279.83	0.159
1288.43	0.065
1297.02	0.042
1305.62	0.265
1314.22	0.481
1322.82	0.522
1331.41	0.526
1340.01	0.485
1348.61	0.339
1357.2	0.249
1365.8	0.1771
1374.4	0.051
1382.99	0.256
1391.59	0.363
1400.19	0.378
1408.79	0.369
1417.38	0.314
1425.98	0.237
1434.58	0.127
1443.17	0.105
1451.77	0.14
1460.37	0.159
1468.97	0.228
1477.56	0.247
1486.16	0.296
1494.76	0.267
1503.35	0.175
1511.95	0.128
1520.55	0.089
1529.15	0.065
1537.74	0.027
1546.34	0.007
1554.94	0.002
1563.53	0.003
1572.13	0.024
1580.73	0.101
1589.32	0.192
1597.92	0.242
1606.52	0.237
1615.12	0.171
1623.71	0.066
1632.31	0.003
1640.91	0
1649.5	0
1658.1	0
1666.7	0.012
1675.3	0.056
1683.89	0.185
1692.49	0.42
1701.09	0.59
1709.68	0.682
1718.28	0.727
1726.88	0.753
1735.48	0.764
1744.07	0.77
1752.67	0.782
1761.27	0.799
1769.86	0.81
1778.46	0.822
1787.06	0.833
1795.65	0.837
1804.25	0.842
1812.85	0.844
1821.45	0.845
1830.04	0.845
1838.64	0.844
1847.24	0.842
1855.83	0.841
1864.43	0.843
1873.03	0.844
1881.63	0.844
1890.22	0.845
1898.82	0.846
1907.42	0.846
1916.01	0.846
1924.61	0.846
1933.21	0.844
1941.8	0.843
1950.4	0.846
1959	0.846
1967.6	0.845
1976.19	0.842
1984.79	0.838
1993.39	0.836
2001.98	0.84
2010.58	0.84
2019.18	0.8402
2027.78	0.8425
2036.37	0.844
2044.97	0.8449
2053.57	0.846
2062.16	0.847
2070.76	0.8487
2079.36	0.849
2087.96	0.8501
2096.55	0.851
2105.15	0.851
2113.75	0.851
2122.34	0.851
2130.94	0.85
2139.54	0.849
2148.13	0.848
2156.73	0.847
2165.33	0.847
2173.93	0.847
2182.52	0.849
2191.12	0.851
2199.72	0.8523
2208.31	0.853
2216.91	0.853
2225.51	0.853
2234.11	0.852
2242.7	0.8515
2251.3	0.8503
2259.9	0.8481
2268.49	0.8448
2277.09	0.8376
2285.69	0.8343
2294.29	0.8331
2302.88	0.8331
2311.48	0.8364
2320.08	0.8376
2328.67	0.838
2337.27	0.8391
2345.87	0.8457
2354.46	0.851
2363.06	0.8528
2371.66	0.8531
2380.26	0.854
2388.85	0.854
2397.45	0.853
2406.05	0.852
2414.64	0.8505
2423.24	0.846
2431.84	0.8375
2440.44	0.836
2449.03	0.8429
2457.63	0.8515
2466.23	0.8547
2474.82	0.8569
2483.42	0.8582
2492.02	0.86
2500.61	0.861
2509.21	0.861
2517.81	0.8587
2526.41	0.8522
2535	0.849
2543.6	0.8461
2552.2	0.8409
2560.79	0.838
2569.39	0.8354
2577.99	0.8284
2586.59	0.824
2595.18	0.8263
2603.78	0.8331
2612.38	0.8416
2620.97	0.843
2629.57	0.844
2638.17	0.8435
2646.77	0.842
2655.36	0.84
2663.96	0.8388
2672.56	0.8341
2681.15	0.8242
2689.75	0.819
2698.35	0.818
2706.94	0.814
2715.54	0.808
2724.14	0.8079
2732.74	0.8101
2741.33	0.8134
2749.93	0.816
2758.53	0.817
2767.12	0.8127
2775.72	0.8036
2784.32	0.7895
2792.92	0.7674
2801.51	0.7455
2810.11	0.7173
2818.71	0.6897
2827.3	0.6645
2835.9	0.6429
2844.5	0.6094
2853.1	0.5899
2861.69	0.5633
2870.29	0.4719
2878.89	0.3488
2887.48	0.371
2896.08	0.4561
2904.68	0.4629
2913.27	0.4573
2921.87	0.3918
2930.47	0.2749
2939.07	0.1958
2947.66	0.3485
2956.26	0.3966
2964.86	0.2707
2973.45	0.166
2982.05	0.0939
2990.65	0.1865
2999.25	0.3185
3007.84	0.399
3016.44	0.5253
3025.04	0.574
3033.63	0.5964
3042.23	0.5982
3050.83	0.5696
3059.42	0.4744
3068.02	0.3537
3076.62	0.2906
3085.22	0.2589
3093.81	0.3147
3102.41	0.3628
3111.01	0.3968
3119.6	0.4582
3128.2	0.4937
3136.8	0.5123
3145.4	0.5267
3153.99	0.5328
3162.59	0.5264
3171.19	0.4969
3179.78	0.4504
3188.38	0.417
3196.98	0.3651
3205.58	0.3196
3214.17	0.2993
3222.77	0.2798
3231.37	0.2429
3239.96	0.1641
3248.56	0.1247
3257.16	0.0831
3265.75	0.0599
3274.35	0.0446
3282.95	0.034
3291.55	0.031
3300.14	0.034
3308.74	0.0405
3317.34	0.0538
3325.93	0.0758
3334.53	0.1105
3343.13	0.1602
3351.73	0.2245
3360.32	0.3181
3368.92	0.3756
3377.52	0.4173
3386.11	0.4869
3394.71	0.5086
3403.31	0.5397
3411.91	0.5872
3420.5	0.6498
3429.1	0.6781
3437.7	0.6998
3446.29	0.7029
3454.89	0.6726
3463.49	0.6248
3472.08	0.6647
3480.68	0.7302
3489.28	0.7615
3497.88	0.776
3506.47	0.79
3515.07	0.797
3523.67	0.8059
3532.26	0.8115
3540.86	0.8187
3549.46	0.8219
3558.06	0.8284
3566.65	0.8347
3575.25	0.8387
3583.85	0.842
3592.44	0.8462
3601.04	0.8502
3609.64	0.853
3618.23	0.8549
3626.83	0.8561
3635.43	0.857
3644.03	0.859
3652.62	0.859
3661.22	0.8587
3669.82	0.8501
3678.41	0.8234
3687.01	0.8128
3695.61	0.8321
3704.21	0.8485
3712.8	0.855
3721.4	0.8597
3730	0.862
3738.59	0.863
3747.19	0.863
3755.79	0.861
3764.39	0.861
3772.98	0.861
3781.58	0.8614
3790.18	0.862
3798.77	0.862
3807.37	0.863
3815.97	0.863
3824.56	0.863
3833.16	0.8621
3841.76	0.862
3850.36	0.861
3858.95	0.861
3867.55	0.861
3876.15	0.86
3884.74	0.859
3893.34	0.857
3901.94	0.8562
3910.54	0.855
3919.13	0.8537
3927.73	0.852
3936.33	0.8512
3944.92	0.851
3953.52	0.851
3962.12	0.851
3970.72	0.8493
3979.31	0.8481
3987.91	0.8478
3996.51	0.8474
4005.1	0.847
