Infrared Spectrum: Acetamide, N-ethyl-
Formula: C 4 H 9 N O
CAS: 625-50-3
State: gas
Origin: Sadtler Research Labs Under US-EPA Contract
1/CM	ABSORBANCE
450	0.0715379
462	0.064784
474	0.0498544
486	0.0407011
498	0.0301259
510	0.0277265
522	0.0209726
534	0.0190175
546	0.014041
558	0.0107529
570	0.00950877
582	0.0107529
594	0.0132412
606	0.0205283
618	0.0286152
630	0.0250605
642	0.0141299
654	0.00826463
666	0.00293261
678	0.00284374
690	0.00399901
702	0.00204394
714	0.00204394
726	0.00435448
738	0.00853123
750	0.0127968
762	0.0249716
774	0.0296816
786	0.0309257
798	0.033414
810	0.0356357
822	0.0338583
834	0.0318144
846	0.0247939
858	0.0169736
870	0.0125302
882	0.0094199
894	0.0088867
906	0.0107529
918	0.0171513
930	0.0231054
942	0.0237275
954	0.0224834
966	0.0258603
978	0.0312812
990	0.0275488
1002	0.0183955
1014	0.0115527
1026	0.0129746
1038	0.0186621
1050	0.0241718
1062	0.0286152
1074	0.0317255
1086	0.0295038
1098	0.0268378
1110	0.0333251
1122	0.0365243
1134	0.033414
1146	0.0362577
1158	0.0378573
1170	0.0350136
1182	0.0326142
1194	0.0423007
1206	0.0705604
1218	0.118282
1230	0.233187
1242	0.355024
1254	0.33023
1266	0.163871
1278	0.0869119
1290	0.102375
1302	0.12157
1314	0.108773
1326	0.0592743
1338	0.0518095
1350	0.0820242
1362	0.146097
1374	0.172669
1386	0.146631
1398	0.116416
1410	0.0830906
1422	0.104152
1434	0.150096
1446	0.205994
1458	0.269356
1470	0.329252
1482	0.466729
1494	0.589899
1506	0.575592
1518	0.367821
1530	0.190886
1542	0.125302
1554	0.0773143
1566	0.0462108
1578	0.0325253
1590	0.0209726
1602	0.019373
1614	0.0175068
1626	0.0190175
1638	0.0239941
1650	0.0289706
1662	0.0418564
1674	0.079536
1686	0.191153
1698	0.460064
1710	0.859788
1722	0.866098
1734	0.616382
1746	0.222878
1758	0.07216
1770	0.0420341
1782	0.0281708
1794	0.0275488
1806	0.0198173
1818	0.011375
1830	0.0091533
1842	0.00639842
1854	0.00364355
1866	0.00479882
1878	0.00328808
1890	0.00444335
1902	0.00239941
1914	0.00195507
1926	0.00266601
1938	0.00142187
1950	0.00124414
1962	0.00204394
1974	0.00266601
1986	0.00275488
1998	0.00266601
2010	0.00222168
2022	0.00186621
2034	0.00088867
2046	0.000355468
2058	0.000266601
2070	0.000533202
2082	0.00088867
2094	0.000533202
2106	0.0010664
2118	0.00115527
2130	0.0010664
2142	0.0010664
2154	0.000710936
2166	0.000710936
2178	0.000710936
2190	0.000799803
2202	0.000710936
2214	0.000977537
2226	0.001333
2238	0.001333
2250	0.001333
2262	0.00177734
2274	0.00293261
2286	0.00293261
2298	0.00284374
2310	0.00293261
2322	0.00204394
2334	0.000977537
2346	0.00151074
2358	0.00195507
2370	0.00124414
2382	0.00204394
2394	0.00168847
2406	0.00159961
2418	0.001333
2430	0.00159961
2442	0.00177734
2454	0.00177734
2466	0.001333
2478	0.000799803
2490	0.0010664
2502	0.000444335
2514	0.000355468
2526	0.000266601
2538	0.000444335
2550	0.000444335
2562	0.000533202
2574	0.000977537
2586	0.00151074
2598	0.00177734
2610	0.00257714
2622	0.00204394
2634	0.00204394
2646	0.00248828
2658	0.00248828
2670	0.00213281
2682	0.00311035
2694	0.00408788
2706	0.00506542
2718	0.00586522
2730	0.00693163
2742	0.00702049
2754	0.00719823
2766	0.00710936
2778	0.00666502
2790	0.00710936
2802	0.00870897
2814	0.0111972
2826	0.0148408
2838	0.0194619
2850	0.0261269
2862	0.0385683
2874	0.0635399
2886	0.0873563
2898	0.098909
2910	0.106729
2922	0.13099
2934	0.170625
2946	0.182088
2958	0.179422
2970	0.197285
2982	0.218791
2994	0.178534
3006	0.099531
3018	0.0551864
3030	0.0383905
3042	0.0299482
3054	0.0232832
3066	0.0183066
3078	0.0161738
3090	0.0134189
3102	0.0111084
3114	0.00897557
3126	0.00639842
3138	0.00542089
3150	0.00453222
3162	0.00462108
3174	0.00408788
3186	0.00382128
3198	0.00213281
3210	0.00239941
3222	0.00168847
3234	0.00142187
3246	0.000977537
3258	0.000799803
3270	0.00088867
3282	0.000444335
3294	0.000444335
3306	0.000444335
3318	0.000444335
3330	0.000355468
3342	0.000799803
3354	0.000177734
3366	0.00159961
3378	0.00195507
3390	0.00488769
3402	0.0094199
3414	0.0146631
3426	0.0177734
3438	0.0197285
3450	0.0261269
3462	0.0407011
3474	0.0500321
3486	0.0456776
3498	0.0277265
3510	0.0132412
3522	0.00488769
3534	0.00213281
3546	0.00719823
3558	0.00293261
3570	0.0130634
3582	0.00533202
3594	0.00648729
3606	0.00426562
3618	0.00542089
3630	0.0102197
3642	0.00168847
3654	0.00462108
3666	0.00142187
3678	0.00764256
3690	0.00515429
3702	0.00373241
3714	0.00790916
3726	0.0086201
3738	0.0124414
3750	0.0094199
3762	0.00426562
3774	0.00248828
3786	0.00266601
3798	0.00426562
3810	0.00355468
3822	0.00639842
3834	0.00550975
3846	0.00506542
3858	0.00728709
3870	0.00790916
3882	0.00728709
3894	0.0075537
3906	0.0075537
3918	0.00542089
3930	0.00408788
3942	0.00399901
3954	0.000355468
3966	0.000622069
