Infrared Spectrum: GLYCINE
Formula: C2 H5 N O2
CAS: 56-40-6
State: SOLID (MULL, KBr DISC)
Melting point: 233 C, DECOMP.
Class: COBLENTZ III
Instrument: PERKIN-ELMER 521 (GRATING)
Instrument parameters: ORDER CHANGES: 1999, 690 CM^-^1
Sampling: TRANSMISSION
Resolution: 2
Origin: SMITH KLINE &amp; FRENCH LABS.
1/CM	TRANSMITTANCE
4008	0.6292
3998	0.6303
3988	0.6315
3978	0.6326
3968	0.6332
3958	0.6338
3948	0.6343
3938	0.6343
3928	0.6356
3918	0.6377
3908	0.6404
3898	0.6412
3888	0.6421
3878	0.6431
3868	0.6441
3858	0.6451
3848	0.6468
3838	0.6504
3828	0.6447
3818	0.6451
3808	0.6458
3798	0.646
3788	0.6456
3778	0.6475
3768	0.6503
3758	0.6511
3748	0.6521
3738	0.6515
3728	0.651
3718	0.6521
3708	0.6528
3698	0.6522
3688	0.6535
3678	0.6543
3668	0.6544
3658	0.6528
3648	0.6501
3638	0.6511
3628	0.6534
3618	0.6558
3608	0.6547
3598	0.6525
3588	0.6515
3578	0.6511
3568	0.6514
3558	0.6512
3548	0.6505
3538	0.6499
3528	0.6492
3518	0.6485
3508	0.6478
3498	0.6469
3488	0.6445
3478	0.6422
3468	0.641
3458	0.6403
3448	0.6411
3438	0.6426
3428	0.6393
3418	0.639
3408	0.639
3398	0.6373
3388	0.6364
3378	0.6362
3368	0.636
3358	0.6355
3348	0.6336
3338	0.6274
3328	0.6199
3318	0.6123
3308	0.6042
3298	0.596
3288	0.588
3278	0.58
3268	0.5705
3258	0.561
3248	0.5487
3238	0.5322
3228	0.5145
3218	0.4946
3208	0.4546
3198	0.4087
3188	0.3726
3178	0.3377
3168	0.3324
3158	0.3366
3148	0.3564
3138	0.3853
3128	0.3899
3118	0.4014
3108	0.4034
3098	0.4012
3088	0.385
3078	0.367
3068	0.3508
3058	0.3373
3048	0.3278
3038	0.3223
3028	0.3163
3018	0.3067
3008	0.2789
2998	0.2809
2988	0.2752
2978	0.2321
2968	0.1824
2958	0.1396
2948	0.1366
2938	0.1332
2928	0.1056
2918	0.1061
2908	0.1263
2898	0.1373
2888	0.1662
2878	0.1696
2868	0.1575
2858	0.1532
2848	0.1777
2838	0.2131
2828	0.236
2818	0.2514
2808	0.2648
2798	0.2777
2788	0.2892
2778	0.2942
2768	0.296
2758	0.2984
2748	0.3035
2738	0.3049
2728	0.2957
2718	0.2939
2708	0.2943
2698	0.2994
2688	0.3082
2678	0.3188
2668	0.3218
2658	0.3214
2648	0.3179
2638	0.3016
2628	0.2908
2618	0.2869
2608	0.2858
2598	0.2882
2588	0.2966
2578	0.3138
2568	0.3332
2558	0.3378
2548	0.3388
2538	0.3396
2528	0.3398
2518	0.3468
2508	0.3624
2498	0.379
2488	0.3945
2478	0.4123
2468	0.4222
2458	0.4315
2448	0.4401
2438	0.449
2428	0.4574
2418	0.465
2408	0.4846
2398	0.4972
2388	0.5082
2378	0.5165
2368	0.5226
2358	0.5329
2348	0.5403
2338	0.5429
2328	0.5471
2318	0.5512
2308	0.5566
2298	0.5605
2288	0.5577
2278	0.556
2268	0.5559
2258	0.5628
2248	0.5677
2238	0.5706
2228	0.5685
2218	0.5648
2208	0.5655
2198	0.5689
2188	0.5705
2178	0.5694
2168	0.5654
2158	0.5596
2148	0.5525
2138	0.5459
2128	0.5414
2118	0.5419
2108	0.5515
2098	0.5635
2088	0.5749
2078	0.5852
2068	0.5944
2058	0.6008
2048	0.6054
2038	0.61
2028	0.615
2018	0.6202
2008	0.6264
1998	0.6392
1988	0.6425
1978	0.6453
1968	0.6475
1958	0.6492
1948	0.6511
1938	0.6525
1928	0.654
1918	0.6564
1908	0.6604
1898	0.6605
1888	0.6606
1878	0.6607
1868	0.6611
1858	0.6626
1848	0.6645
1838	0.6587
1828	0.6568
1818	0.6568
1808	0.6575
1798	0.6562
1788	0.6596
1778	0.6618
1768	0.6604
1758	0.6599
1748	0.658
1738	0.6549
1728	0.6503
1718	0.6395
1708	0.6336
1698	0.6257
1688	0.613
1678	0.606
1668	0.5686
1658	0.4962
1648	0.4392
1638	0.3512
1628	0.2673
1618	0.1811
1608	0.1477
1598	0.1398
1588	0.122
1578	0.1357
1568	0.219
1558	0.2957
1548	0.328
1538	0.3125
1528	0.1623
1518	0.1629
1508	0.1725
1498	0.2169
1488	0.283
1478	0.3643
1468	0.3816
1458	0.352
1448	0.3766
1438	0.3298
1428	0.4323
1418	0.2691
1408	0.1779
1398	0.2422
1388	0.3105
1378	0.3727
1368	0.4631
1358	0.5254
1348	0.5217
1338	0.3494
1328	0.2084
1318	0.4477
1308	0.4771
1298	0.5244
1288	0.5715
1278	0.5945
1268	0.6219
1258	0.6303
1248	0.6467
1238	0.6525
1228	0.6565
1218	0.6618
1208	0.6691
1198	0.6685
1188	0.6744
1178	0.6814
1168	0.6917
1158	0.6843
1148	0.6847
1138	0.6621
1128	0.5965
1118	0.6273
1108	0.5633
1098	0.6425
1088	0.6847
1078	0.7024
1068	0.7038
1058	0.7065
1048	0.7114
1038	0.6943
1028	0.6095
1018	0.7004
1008	0.7228
998	0.7321
988	0.7371
978	0.741
968	0.7444
958	0.7503
948	0.7519
938	0.7549
928	0.7524
918	0.7222
908	0.4782
898	0.6486
888	0.4801
878	0.7032
868	0.7483
858	0.763
848	0.7696
838	0.7746
828	0.7789
818	0.7818
808	0.7825
798	0.7838
788	0.786
778	0.7855
768	0.7908
758	0.788
748	0.7867
738	0.786
728	0.7841
718	0.7708
708	0.7558
698	0.5032
688	0.5487
678	0.6924
668	0.7471
658	0.7744
648	0.7883
638	0.7949
628	0.7982
618	0.7905
608	0.7115
598	0.6921
588	0.7447
578	0.7599
568	0.7615
558	0.7531
548	0.7251
538	0.7185
528	0.6449
518	0.5409
508	0.4375
498	0.4022
488	0.5909
478	0.7088
468	0.7325
458	0.7319
448	0.7258
438	0.7117
428	0.699
418	0.6899
408	0.6301
398	0.5958
388	0.5571
378	0.4603
368	0.4028
358	0.2523
348	0.2406
338	0.2382
328	0.2315
318	0.194
308	0.1596
