Infrared Spectrum: 1,1-DICHLOROPROPENE
Formula: C3 H4 Cl2
CAS: 563-58-6
Class: COBLENTZ
Instrument: Not specified, most likely a prism, grating, or hybrid spectrometer.
Sampling: TRANSMISSION
Path length: 0.0025 CM
Resolution: 4
Origin: W.T. BOLLETER
MICROMETERS	TRANSMITTANCE
14.507	0.491
14.5769	0.5
14.6468	0.55
14.7168	0.6
14.7867	0.641
14.8566	0.664
14.9265	0.696
14.9964	0.708
15.0664	0.73
15.1363	0.73
15.2062	0.726
15.2761	0.725
15.346	0.737
15.416	0.757
15.4859	0.762
15.5558	0.766
15.6257	0.764
15.6956	0.762
15.7656	0.758
15.8355	0.748
15.9054	0.735
15.9753	0.717
16.0452	0.691
16.1151	0.66
16.1851	0.626
16.255	0.573
16.3249	0.5
16.3948	0.419
16.4647	0.308
16.5347	0.207
16.6046	0.108
16.6745	0.055
16.7444	0.035
16.8143	0.03
16.8843	0.039
16.9542	0.06
17.0241	0.148
17.094	0.282
17.1639	0.396
17.2339	0.48
17.3038	0.537
17.3737	0.585
17.4436	0.626
17.5135	0.664
17.5835	0.696
17.6534	0.712
17.7233	0.742
17.7932	0.762
17.8631	0.773
17.9331	0.783
18.003	0.783
18.0729	0.778
18.1428	0.767
18.2127	0.766
18.2827	0.764
18.3526	0.766
18.4225	0.776
18.4924	0.792
18.5623	0.808
18.6323	0.823
18.7022	0.832
18.7721	0.841
18.842	0.844
18.9119	0.846
18.9818	0.848
19.0518	0.848
19.1217	0.848
19.1916	0.848
19.2615	0.848
19.3314	0.844
19.4014	0.842
19.4713	0.839
19.5412	0.83
19.6111	0.83
19.681	0.826
19.751	0.826
19.8209	0.826
19.8908	0.825
19.9607	0.821
20.0306	0.819
20.1006	0.816
20.1705	0.808
20.2404	0.801
20.3103	0.8
20.3802	0.787
20.4502	0.78
20.5201	0.766
20.59	0.757
20.6599	0.742
20.7298	0.725
20.7998	0.705
20.8697	0.683
20.9396	0.664
21.0095	0.635
21.0794	0.605
21.1494	0.573
21.2193	0.526
21.2892	0.483
21.3591	0.43
21.429	0.373
21.499	0.3
21.5689	0.221
21.6388	0.164
21.7087	0.1
21.7786	0.053
21.8485	0.041
21.9185	0.035
21.9884	0.033
22.0583	0.037
22.1282	0.042
22.1981	0.048
22.2681	0.048
22.338	0.05
22.4079	0.048
22.4778	0.044
22.5477	0.042
22.6177	0.046
22.6876	0.048
22.7575	0.051
22.8274	0.06
22.8973	0.078
22.9673	0.103
23.0372	0.13
23.1071	0.164
23.177	0.203
23.2469	0.248
23.3169	0.291
23.3868	0.333
23.4567	0.383
23.5266	0.435
23.5965	0.487
23.6665	0.526
23.7364	0.567
23.8063	0.605
23.8762	0.65
23.9461	0.673
24.0161	0.707
24.086	0.73
24.1559	0.751
24.2258	0.762
24.2957	0.773
24.3657	0.783
24.4356	0.789
24.5055	0.798
24.5754	0.801
24.6453	0.805
24.7153	0.807
24.7852	0.81
24.8551	0.812
24.925	0.816
24.9949	0.817
25.0648	0.821
25.1348	0.823
25.2047	0.825
25.2746	0.828
25.3445	0.832
25.4144	0.832
25.4844	0.833
25.5543	0.837
25.6242	0.841
25.6941	0.846
25.764	0.848
25.834	0.848
25.9039	0.848
25.9738	0.85
26.0437	0.85
26.1136	0.85
26.1836	0.85
26.2535	0.853
26.3234	0.857
26.3933	0.86
26.4632	0.864
26.5332	0.867
26.6031	0.869
26.673	0.869
26.7429	0.867
26.8128	0.867
26.8828	0.867
26.9527	0.88
27.0226	0.892
27.0925	0.891
27.1624	0.88
27.2324	0.88
27.3023	0.885
27.3722	0.885
27.4421	0.887
27.512	0.891
27.582	0.892
27.6519	0.894
27.7218	0.896
27.7917	0.898
27.8616	0.901
27.9315	0.901
28.0015	0.903
28.0714	0.903
28.1413	0.905
28.2112	0.907
28.2811	0.907
28.3511	0.905
28.421	0.905
28.4909	0.903
28.5608	0.9
28.6307	0.9
28.7007	0.9
28.7706	0.9
28.8405	0.901
28.9104	0.903
28.9803	0.908
29.0503	0.916
29.1202	0.919
29.1901	0.919
29.26	0.919
29.3299	0.916
29.3999	0.912
29.4698	0.916
29.5397	0.917
29.6096	0.917
29.6795	0.919
29.7495	0.919
29.8194	0.912
29.8893	0.908
29.9592	0.908
30.0291	0.91
30.0991	0.917
30.169	0.926
30.2389	0.935
30.3088	0.941
30.3787	0.939
30.4487	0.932
30.5186	0.916
30.5885	0.91
30.6584	0.912
30.7283	0.919
30.7982	0.919
30.8682	0.912
30.9381	0.907
31.008	0.903
31.0779	0.907
31.1478	0.912
31.2178	0.919
31.2877	0.925
31.3576	0.93
31.4275	0.932
31.4974	0.93
31.5674	0.926
31.6373	0.926
31.7072	0.925
31.7771	0.921
31.847	0.921
31.917	0.921
31.9869	0.917
32.0568	0.921
32.1267	0.923
32.1966	0.921
32.2666	0.921
32.3365	0.926
32.4064	0.93
32.4763	0.93
32.5462	0.937
32.6162	0.942
32.6861	0.957
32.756	0.966
32.8259	0.976
32.8958	0.975
32.9658	0.957
33.0357	0.926
33.1056	0.901
33.1755	0.887
33.2454	0.883
33.3154	0.894
33.3853	0.903
33.4552	0.912
33.5251	0.91
33.595	0.908
33.6649	0.905
33.7349	0.9
33.8048	0.88
33.8747	0.873
33.9446	0.866
34.0145	0.853
34.0845	0.844
34.1544	0.83
34.2243	0.826
34.2942	0.826
34.3641	0.821
34.4341	0.817
34.504	0.814
34.5739	0.816
34.6438	0.817
34.7137	0.821
34.7837	0.83
34.8536	0.85
34.9235	0.855
34.9934	0.869
35.0633	0.88
35.1333	0.891
35.2032	0.901
35.2731	0.905
35.343	0.912
35.4129	0.91
35.4829	0.905
35.5528	0.903
35.6227	0.898
35.6926	0.901
35.7625	0.903
35.8325	0.905
35.9024	0.901
35.9723	0.894
36.0422	0.882
36.1121	0.871
36.1821	0.873
36.252	0.871
36.3219	0.876
36.3918	0.878
36.4617	0.871
36.5316	0.883
36.6016	0.882
36.6715	0.88
36.7414	0.878
36.8113	0.869
36.8812	0.867
36.9512	0.864
37.0211	0.858
37.091	0.853
37.1609	0.851
37.2308	0.85
37.3008	0.846
37.3707	0.841
37.4406	0.833
37.5105	0.826
37.5804	0.812
37.6504	0.805
37.7203	0.8
37.7902	0.787
37.8601	0.775
37.93	0.753
