Infrared Spectrum: Ethylene, fluorotrichloro-
Formula: C2 Cl3 F
CAS: 359-29-5
State: GAS (60 mmHg, N2 ADDED, TOTAL PRESSURE 600 mmHg)
Class: COBLENTZ
Instrument: DOW KBr FOREPRISM-GRATING
Instrument parameters: GRATING CHANGED AT 5.0, 7.5, 15.0 MICRON
Sampling: TRANSMISSION
Path length: 5 CM
Resolution: 2
Origin: DOW CHEMICAL COMPANY
1/CM	TRANSMITTANCE
390	0.8322
399	0.8341
408	0.8359
417	0.837
426	0.8385
435	0.84
444	0.8419
453	0.8433
462	0.8434
471	0.8446
480	0.8438
489	0.8419
498	0.8385
507	0.8386
516	0.823
525	0.8008
534	0.776
543	0.8085
552	0.8276
561	0.8365
570	0.8362
579	0.8337
588	0.8356
597	0.8391
606	0.8416
615	0.8438
624	0.8497
633	0.8507
642	0.8588
651	0.8633
660	0.867
669	0.8792
678	0.885
687	0.8888
696	0.8904
705	0.8908
714	0.8878
723	0.8857
732	0.8931
741	0.8923
750	0.8907
759	0.8877
768	0.8795
777	0.8692
786	0.8723
795	0.8727
804	0.8546
813	0.82
822	0.7947
831	0.6451
840	0.371
849	0.0108
858	0.0055
867	0.1594
876	0.6816
885	0.7105
894	0.8088
903	0.8317
912	0.7612
921	0.7035
930	0.7575
939	0.7821
948	0.7647
957	0.7651
966	0.585
975	0.1176
984	0.0056
993	0.017
1002	0.2989
1011	0.7622
1020	0.744
1029	0.7191
1038	0.7516
1047	0.7931
1056	0.8058
1065	0.7715
1074	0.7821
1083	0.8312
1092	0.8329
1101	0.8302
1110	0.8241
1119	0.8291
1128	0.8243
1137	0.8105
1146	0.7778
1155	0.7295
1164	0.4221
1173	0.009
1182	0.0082
1191	0.112
1200	0.4969
1209	0.5946
1218	0.58
1227	0.6315
1236	0.7625
1245	0.7681
1254	0.7581
1263	0.7614
1272	0.7896
1281	0.7972
1290	0.7884
1299	0.7779
1308	0.8021
1317	0.8143
1326	0.8088
1335	0.7955
1344	0.7736
1353	0.7293
1362	0.6619
1371	0.6644
1380	0.6956
1389	0.7294
1398	0.7604
1407	0.784
1416	0.7959
1425	0.801
1434	0.8024
1443	0.8107
1452	0.8077
1461	0.8139
1470	0.8129
1479	0.8171
1488	0.8133
1497	0.8029
1506	0.7978
1515	0.8107
1524	0.8181
1533	0.8143
1542	0.8184
1551	0.8207
1560	0.8175
1569	0.8228
1578	0.8177
1587	0.8246
1596	0.8202
1605	0.8073
1614	0.7774
1623	0.7301
1632	0.4999
1641	0.1331
1650	0.1121
1659	0.3343
1668	0.795
1677	0.8088
1686	0.8032
1695	0.7831
1704	0.7815
1713	0.7795
1722	0.796
1731	0.793
1740	0.7933
1749	0.7996
1758	0.8061
1767	0.8122
1776	0.817
1785	0.8183
1794	0.8176
1803	0.8148
1812	0.8115
1821	0.8148
1830	0.8194
1839	0.8194
1848	0.8233
1857	0.8215
1866	0.8207
1875	0.821
1884	0.8215
1893	0.8223
1902	0.8241
1911	0.8245
1920	0.8231
1929	0.8201
1938	0.8172
1947	0.8145
1956	0.8173
1965	0.8209
1974	0.8208
1983	0.8194
1992	0.8156
2001	0.8113
2010	0.8087
2019	0.8065
2028	0.8063
2037	0.8079
2046	0.8112
2055	0.8153
2064	0.8186
2073	0.8203
2082	0.821
2091	0.8208
2100	0.8202
2109	0.8194
2118	0.8182
2127	0.8163
2136	0.8139
2145	0.8108
2154	0.8064
2163	0.8029
2172	0.806
2181	0.8162
2190	0.823
2199	0.823
2208	0.8229
2217	0.8225
2226	0.8224
2235	0.8225
2244	0.8227
2253	0.8225
2262	0.8222
2271	0.8218
2280	0.8216
2289	0.8214
2298	0.8213
2307	0.8213
2316	0.8204
2325	0.8115
2334	0.7877
2343	0.7574
2352	0.7484
2361	0.7918
2370	0.8219
2379	0.8247
2388	0.8251
2397	0.8255
2406	0.8266
2415	0.8275
2424	0.8277
2433	0.8277
2442	0.8271
2451	0.8264
2460	0.8261
2469	0.8262
2478	0.8265
2487	0.8268
2496	0.8271
2505	0.8295
2514	0.8332
2523	0.8335
2532	0.8333
2541	0.833
2550	0.8328
2559	0.8325
2568	0.8325
2577	0.8325
2586	0.8325
2595	0.8327
2604	0.8329
2613	0.833
2622	0.8328
2631	0.8333
2640	0.8369
2649	0.8394
2658	0.8397
2667	0.8399
2676	0.8401
2685	0.8402
2694	0.8402
2703	0.8402
2712	0.8403
2721	0.8403
2730	0.8399
2739	0.8394
2748	0.8391
2757	0.8386
2766	0.8381
2775	0.8373
2784	0.8347
2793	0.8252
2802	0.8111
2811	0.7958
2820	0.7947
2829	0.8171
2838	0.839
2847	0.8375
2856	0.8329
2865	0.8331
2874	0.8353
2883	0.8376
2892	0.8403
2901	0.8431
2910	0.845
2919	0.8372
2928	0.8191
2937	0.8171
2946	0.8285
2955	0.8342
2964	0.8379
2973	0.8396
2982	0.8405
2991	0.8411
3000	0.8417
3009	0.8408
3018	0.8404
3027	0.8403
3036	0.8415
3045	0.844
3054	0.8461
3063	0.8467
3072	0.8469
3081	0.8468
3090	0.8465
3099	0.8463
3108	0.8465
3117	0.8467
3126	0.8467
3135	0.8468
3144	0.8468
3153	0.8468
3162	0.8468
3171	0.8469
3180	0.8471
3189	0.8474
3198	0.8478
3207	0.8483
3216	0.8489
3225	0.8491
3234	0.8494
3243	0.8497
3252	0.8499
3261	0.85
3270	0.8502
3279	0.8502
3288	0.8503
3297	0.8503
3306	0.8504
3315	0.8507
3324	0.8507
3333	0.8514
3342	0.8518
3351	0.8521
3360	0.8526
3369	0.8529
3378	0.8532
3387	0.8531
3396	0.8531
3405	0.853
3414	0.8529
3423	0.8524
3432	0.8519
3441	0.8512
3450	0.8511
3459	0.8511
3468	0.8511
3477	0.8511
3486	0.8516
3495	0.8519
3504	0.8524
3513	0.8528
3522	0.8531
3531	0.8533
3540	0.8536
3549	0.8539
3558	0.854
3567	0.8537
3576	0.8535
3585	0.8534
3594	0.8535
3603	0.8536
3612	0.8538
3621	0.854
3630	0.8543
3639	0.8546
3648	0.8545
3657	0.854
3666	0.853
3675	0.8523
3684	0.8518
3693	0.8512
3702	0.8506
3711	0.8494
3720	0.8479
3729	0.8458
3738	0.8442
3747	0.8495
3756	0.8548
3765	0.8546
