Infrared Spectrum: 2,2-Difluoroethanol
Formula: C 2 H 4 F 2 O
CAS: 359-13-7
State: gas
Origin: EPA-IR VAPOR PHASE LIBRARY
1/CM	ABSORBANCE
549.8	0.0008609
559.445	0.0007292
569.09	0.0008577
578.735	0.0009075
588.38	0.0007952
598.025	0.00040093
607.67	0.0006532
617.315	0.0002805
626.96	0.00045008
636.605	0.000265
646.251	0.00042218
655.896	0.00022
665.541	0.0003387
675.186	0.00045972
684.831	0.000353
694.476	0.000319
704.121	0.00037266
713.766	0.000561
723.411	0.0006514
733.056	0.0009088
742.701	0.0011434
752.346	0.0009334
761.991	0.0008553
771.636	0.00047277
781.281	0.00040885
790.926	0.0004436
800.571	0.000605
810.216	0.0006167
819.861	0.000586
829.507	0.0008643
839.152	0.0012242
848.797	0.001975
858.442	0.002935
868.087	0.003965
877.732	0.003855
887.377	0.003985
897.022	0.003265
906.667	0.002605
916.312	0.002215
925.957	0.001805
935.602	0.001595
945.247	0.0012613
954.892	0.0011527
964.537	0.0010593
974.182	0.0011786
983.827	0.001375
993.472	0.001525
1003.12	0.001895
1012.76	0.002395
1022.41	0.003475
1032.05	0.005625
1041.7	0.009485
1051.34	0.014365
1060.99	0.018775
1070.63	0.023335
1080.28	0.027105
1089.92	0.027085
1099.57	0.025855
1109.21	0.021215
1118.86	0.015405
1128.5	0.012355
1138.15	0.010295
1147.79	0.008295
1157.44	0.006605
1167.08	0.004425
1176.73	0.003365
1186.37	0.003245
1196.02	0.003395
1205.66	0.003585
1215.31	0.003475
1224.95	0.003095
1234.6	0.002575
1244.24	0.001835
1253.89	0.001505
1263.53	0.001385
1273.18	0.0012763
1282.82	0.0012838
1292.47	0.001485
1302.11	0.001665
1311.76	0.002095
1321.4	0.002345
1331.05	0.002795
1340.69	0.003345
1350.34	0.003865
1359.98	0.004685
1369.63	0.004995
1379.27	0.004275
1388.92	0.003655
1398.56	0.003095
1408.21	0.002655
1417.85	0.002315
1427.5	0.001865
1437.14	0.001495
1446.79	0.0011696
1456.43	0.0012396
1466.08	0.0010228
1475.73	0.0009512
1485.37	0.0006632
1495.02	0.0005554
1504.66	0.0005912
1514.31	0.00043315
1523.95	0.00044805
1533.6	0.00040308
1543.24	0.00044694
1552.89	0.0003323
1562.53	0.0003482
1572.18	0.0002756
1581.82	0.0003354
1591.47	0.0002961
1601.11	0.00031
1610.76	0.000192
1620.4	0.000243
1630.05	0.0003592
1639.69	0.0003333
1649.34	0.00036917
1658.98	0.000264
1668.63	0.00040138
1678.27	0.0003464
1687.92	0.0003646
1697.56	0.0006058
1707.21	0.0006334
1716.85	0.0008221
1726.5	0.0006692
1736.14	0.0008358
1745.79	0.0006814
1755.43	0.0006392
1765.08	0.0005169
1774.72	0.00045127
1784.37	0.0003338
1794.01	0.0002813
1803.66	0.000238
1813.3	0.000181
1822.95	0.000224
1832.59	0.000213
1842.24	0.000262
1851.88	0.000175
1861.53	0.000234
1871.17	0.000202
1880.82	0.000178
1890.46	0.000169
1900.11	0.000179
1909.75	0.000206
1919.4	0.000187
1929.04	0.000218
1938.69	0.000239
1948.33	0.000254
1957.98	0.00022
1967.62	0.000196
1977.27	0.000258
1986.91	0.000224
1996.56	0.000327
2006.2	0.000247
2015.85	0.000273
2025.49	0.000141
2035.14	0.000232
2044.78	0.000201
2054.43	0.000217
2064.07	0.000218
2073.72	0.000232
2083.36	0.000231
2093.01	0.000234
2102.65	0.000249
2112.3	0.000303
2121.94	0.0003348
2131.59	0.000257
2141.23	0.000312
2150.88	0.0003021
2160.52	0.000268
2170.17	0.000249
2179.81	0.000264
2189.46	0.000247
2199.1	0.0002866
2208.75	0.0002802
2218.39	0.0002
2228.04	0.000232
2237.68	0.000232
2247.33	0.000211
2256.97	0.000199
2266.62	0.000219
2276.26	0.000132
2285.91	0.000226
2295.55	0.000119
2305.2	0.00011
2314.84	0.000184
2324.49	0.00011
2334.13	0.000205
2343.78	0.000144
2353.42	0.000216
2363.07	0.000242
2372.72	0.000229
2382.36	6.1e-05
2392.01	0.000132
2401.65	0.000146
2411.3	0.000129
2420.94	0.000164
2430.59	0.000155
2440.23	0.000119
2449.88	0.000189
2459.52	0.000133
2469.17	0.000191
2478.81	0.000152
2488.46	0.000116
2498.1	0.000123
2507.75	0.000144
2517.39	0.000133
2527.04	8.9e-05
2536.68	0.000111
2546.33	0.000141
2555.97	9.7e-05
2565.62	9.5e-05
2575.26	8.2e-05
2584.91	9.1e-05
2594.55	0.00013
2604.2	0.000158
2613.84	0
2623.49	5.7e-05
2633.13	9.3e-05
2642.78	6.8e-05
2652.42	8.7e-05
2662.07	9e-06
2671.71	5.4e-05
2681.36	0.000186
2691	0.000183
2700.65	6.9e-05
2710.29	0.000136
2719.94	9.7e-05
2729.58	0.000151
2739.23	0.000155
2748.87	9.6e-05
2758.52	0.000213
2768.16	0.000183
2777.81	0.000261
2787.45	0.000219
2797.1	0.0002812
2806.74	0.000266
2816.39	0.0002977
2826.03	0.000362
2835.68	0.00047175
2845.32	0.0005288
2854.97	0.000581
2864.61	0.0009321
2874.26	0.0011747
2883.9	0.001445
2893.55	0.001555
2903.19	0.001635
2912.84	0.001545
2922.48	0.001845
2932.13	0.002375
2941.77	0.003095
2951.42	0.004015
2961.06	0.004655
2970.71	0.005635
2980.35	0.005555
2990	0.004775
2999.64	0.003205
3009.29	0.002105
3018.93	0.0012463
3028.58	0.0007265
3038.22	0.00036995
3047.87	0.000186
3057.51	0.000233
3067.16	0.000191
3076.8	0.000125
3086.45	0.000113
3096.09	0.00012
3105.74	0.000126
3115.38	3.2e-05
3125.03	0.000157
3134.67	0.000101
3144.32	0.000115
3153.96	9.4e-05
3163.61	0.000142
3173.25	0.000148
3182.9	0.00011
3192.54	6.8e-05
3202.19	0.000175
3211.83	0.000127
3221.48	0.000131
3231.12	1.2e-05
3240.77	0.000121
3250.41	0.000222
3260.06	0.000169
3269.7	3.6e-05
3279.35	0.000232
3289	0.000217
3298.64	0.000165
3308.29	0.000182
3317.93	0.000145
3327.58	0.000129
3337.22	0.000176
3346.87	0.000196
3356.51	0.0002752
3366.16	0.000256
3375.8	0.00040702
3385.45	0.00036627
3395.09	0.00040741
3404.74	0.000204
3414.38	0.000208
3424.03	0.0003447
3433.67	0.000243
3443.32	0.0003162
3452.96	0.0003413
3462.61	0.0003009
3472.25	0.0003118
3481.9	0.0003398
3491.54	0.00044359
3501.19	0.0005006
3510.83	0.0002978
3520.48	0.0004756
3530.12	0.0003328
3539.77	0.0003555
3549.41	0.00038949
3559.06	0.0003606
3568.7	0.00042066
3578.35	0.00044775
3587.99	0.0005068
3597.64	0.00044317
3607.28	0.0006303
3616.93	0.0007797
3626.57	0.0013185
3636.22	0.001955
3645.86	0.002825
3655.51	0.003445
3665.15	0.003475
3674.8	0.003135
3684.44	0.002255
3694.09	0.0012598
3703.73	0.0008082
3713.38	0.0005842
3723.02	0.0007804
3732.67	0.0005277
3742.31	0.0006283
3751.96	0.0005648
3761.6	0.00040782
3771.25	0.0006068
3780.89	0.00040547
3790.54	0.0003606
3800.18	0.0003455
3809.83	0.000273
3819.47	0.000262
3829.12	0.0002857
3838.76	0.00041858
3848.41	0.0003033
3858.05	0.0003482
3867.7	0.00047431
3877.34	0.00040743
3886.99	0.00044883
3896.63	0.0005099
3906.28	0.0003086
3915.92	0.000214
3925.57	0.000203
3935.21	0.000139
3944.86	0.0002953
3954.5	0.00041557
3964.15	0.0003247
3973.79	0.000149
3983.44	0.000201
3993.08	8.6e-05
