Infrared Spectrum: Methane, bromo-
Formula: C H 3 Br
CAS: 74-83-9
State: gas
Origin: Sadtler Research Labs Under US-EPA Contract
1/CM	ABSORBANCE
450	0
462	0.0155734
474	0.0188557
486	0.0181224
498	0.0141069
510	0.0177383
522	0.0196938
534	0.0145957
546	0.0229411
558	0.0303787
570	0.0687186
582	0.143478
594	0.174625
606	0.118582
618	0.17679
630	0.194214
642	0.0350577
654	0.0148401
666	0.0179828
678	0.0163067
690	0.0152242
702	0.0158528
714	0.0168654
726	0.016167
738	0.0174241
750	0.0185415
762	0.0159575
774	0.0171098
786	0.016167
798	0.0157829
810	0.0177034
822	0.0149449
834	0.0162718
846	0.0194842
858	0.0208111
870	0.0252108
882	0.0322991
894	0.0372924
906	0.0401208
918	0.04686
930	0.0613509
942	0.0684044
954	0.0872601
966	0.072385
978	0.0839778
990	0.0578591
1002	0.0595701
1014	0.0440316
1026	0.0377813
1038	0.0319151
1050	0.0266075
1062	0.0218237
1074	0.0206016
1086	0.0170749
1098	0.0150846
1110	0.0162369
1122	0.0148052
1134	0.014491
1146	0.0163067
1158	0.0147354
1170	0.0156433
1182	0.016167
1194	0.0145259
1206	0.0166559
1218	0.0167606
1230	0.0164464
1242	0.0219983
1254	0.0332419
1266	0.077937
1278	0.189186
1290	0.268345
1302	0.150008
1314	0.233986
1326	0.297292
1338	0.0815684
1350	0.0347085
1362	0.047698
1374	0.044276
1386	0.0431936
1398	0.05112
1410	0.0486059
1422	0.0515739
1434	0.0439618
1446	0.0606526
1458	0.039178
1470	0.0594304
1482	0.0463013
1494	0.0531452
1506	0.0569163
1518	0.0418667
1530	0.0523072
1542	0.0423206
1554	0.0402954
1566	0.0352672
1578	0.0259092
1590	0.0223475
1602	0.019589
1614	0.0175288
1626	0.0183319
1638	0.0165511
1650	0.0160623
1662	0.0151195
1674	0.0148401
1686	0.0164464
1698	0.0168654
1710	0.0132339
1722	0.0145608
1734	0.0156782
1746	0.01278
1758	0.0145608
1770	0.0141767
1782	0.0135831
1794	0.0147005
1806	0.014072
1818	0.0135831
1830	0.014037
1842	0.0136529
1854	0.0137228
1866	0.0147005
1878	0.0149798
1890	0.0159575
1902	0.0157131
1914	0.0151195
1926	0.0164464
1938	0.0138974
1950	0.0134434
1962	0.0141069
1974	0.0138275
1986	0.0135482
1998	0.014037
2010	0.0136879
2022	0.0134085
2034	0.0136529
2046	0.0137577
2058	0.0137577
2070	0.014037
2082	0.0134434
2094	0.0137228
2106	0.0133387
2118	0.0134085
2130	0.0136879
2142	0.0137926
2154	0.0138275
2166	0.014072
2178	0.0143862
2190	0.015329
2202	0.0159226
2214	0.0173892
2226	0.0174241
2238	0.0184018
2250	0.0171797
2262	0.0172495
2274	0.0172146
2286	0.0168305
2298	0.0173193
2310	0.0173542
2322	0.0173892
2334	0.0188906
2346	0.0176336
2358	0.0179828
2370	0.0172844
2382	0.0179129
2394	0.0185415
2406	0.0173892
2418	0.014491
2430	0.0147354
2442	0.0155734
2454	0.0152242
2466	0.014491
2478	0.0141767
2490	0.014072
2502	0.0138974
2514	0.0130244
2526	0.0130244
2538	0.0135482
2550	0.0135482
2562	0.0152242
2574	0.0169003
2586	0.0171797
2598	0.0165861
2610	0.0202874
2622	0.0138974
2634	0.0126403
2646	0.0127102
2658	0.0123959
2670	0.0132688
2682	0.0123959
2694	0.0126752
2706	0.0133038
2718	0.0130244
2730	0.0132339
2742	0.0137926
2754	0.0126403
2766	0.0136879
2778	0.0136529
2790	0.0132339
2802	0.0151544
2814	0.0171797
2826	0.0223824
2838	0.0465457
2850	0.0588717
2862	0.0373273
2874	0.0552403
2886	0.0414826
2898	0.0262933
2910	0.0201128
2922	0.0228364
2934	0.066449
2946	0.192817
2958	0.285105
2970	0.193131
2982	0.297536
2994	0.269078
3006	0.130139
3018	0.0508057
3030	0.032788
3042	0.0445205
3054	0.0445205
3066	0.0434729
3078	0.0483614
3090	0.0616303
3102	0.0406096
3114	0.0491645
3126	0.0386193
3138	0.0275503
3150	0.0260139
3162	0.0214047
3174	0.0158179
3186	0.0186462
3198	0.0162718
3210	0.0148401
3222	0.0163416
3234	0.013199
3246	0.0131641
3258	0.0147354
3270	0.0128847
3282	0.0138275
3294	0.0155385
3306	0.0125705
3318	0.014037
3330	0.0141767
3342	0.0126054
3354	0.0144211
3366	0.0134434
3378	0.0134783
3390	0.0148401
3402	0.0129546
3414	0.0131292
3426	0.0145259
3438	0.0127102
3450	0.0133736
3462	0.0150147
3474	0.0128847
3486	0.0137228
3498	0.0135831
3510	0.0130244
3522	0.0142116
3534	0.0137577
3546	0.0132688
3558	0.0165861
3570	0.0144561
3582	0.0153988
3594	0.0171447
3606	0.0138624
3618	0.0131641
3630	0.0142815
3642	0.0127451
3654	0.0133387
3666	0.0139672
3678	0.0136529
3690	0.0158877
3702	0.0142465
3714	0.0133387
3726	0.0131641
3738	0.0130942
3750	0.0134434
3762	0.0130593
3774	0.013199
3786	0.0135482
3798	0.0135831
3810	0.0147703
3822	0.0138974
3834	0.0133038
3846	0.0128847
3858	0.0145608
3870	0.0141418
3882	0.0145259
3894	0.0159575
3906	0.0129895
3918	0.0144211
3930	0.0142815
3942	0.0115928
3954	0.0156433
3966	0.0160972
