Infrared Spectrum: METHYL BROMIDE
Formula: C H3 Br
CAS: 74-83-9
State: GAS (100 mmHg DILUTED TO A TOTAL PRESSURE OF 600 mmHg WITH N2)
Class: COBLENTZ
Instrument: DOW KBr FOREPRISM
Instrument parameters: GRATING CHANGED AT 5.0, 7.5, 15.0 MICRON
Sampling: TRANSMISSION
Path length: 5 CM
Resolution: 4
Origin: DOW CHEMICAL COMPANY
1/CM	TRANSMITTANCE
460.772	0.914
469.178	0.914
477.584	0.916
485.99	0.917
494.396	0.914
502.802	0.914
511.208	0.914
519.614	0.913
528.02	0.914
536.426	0.913
544.832	0.914
553.238	0.914
561.644	0.907
570.05	0.882
578.456	0.812
586.862	0.68
595.268	0.526
603.674	0.529
612.08	0.7457
620.486	0.45
628.892	0.488
637.298	0.8568
645.704	0.934
654.11	0.935
662.516	0.936
670.922	0.938
679.328	0.938
687.734	0.935
696.14	0.935
704.546	0.935
712.952	0.935
721.358	0.936
729.764	0.938
738.17	0.936
746.576	0.936
754.982	0.936
763.388	0.936
771.794	0.936
780.2	0.941
788.606	0.941
797.012	0.936
805.418	0.936
813.824	0.938
822.23	0.936
830.636	0.936
839.042	0.936
847.448	0.934
855.854	0.935
864.26	0.932
872.666	0.923
881.072	0.917
889.478	0.907
897.884	0.8751
906.29	0.8511
914.696	0.74
923.102	0.8678
931.508	0.851
939.914	0.854
948.32	0.813
956.726	0.6489
965.132	0.6402
973.538	0.6592
981.944	0.8625
990.35	0.8687
998.756	0.881
1007.16	0.898
1015.57	0.892
1023.97	0.895
1032.38	0.916
1040.79	0.932
1049.19	0.936
1057.6	0.944
1066	0.947
1074.41	0.944
1082.82	0.945
1091.22	0.95
1099.63	0.954
1108.03	0.954
1116.44	0.956
1124.85	0.956
1133.25	0.951
1141.66	0.947
1150.06	0.953
1158.47	0.956
1166.88	0.951
1175.28	0.947
1183.69	0.948
1192.09	0.956
1200.5	0.956
1208.91	0.956
1217.31	0.953
1225.72	0.956
1234.12	0.954
1242.53	0.942
1250.94	0.928
1259.34	0.91
1267.75	0.857
1276.15	0.725
1284.56	0.514
1292.97	0.366
1301.37	0.4751
1309.78	0.6045
1318.18	0.293
1326.59	0.4309
1335	0.7799
1343.4	0.912
1351.81	0.939
1360.21	0.922
1368.62	0.882
1377.03	0.897
1385.43	0.859
1393.84	0.8837
1402.24	0.674
1410.65	0.875
1419.06	0.8875
1427.46	0.784
1435.87	0.854
1444.27	0.865
1452.68	0.5328
1461.09	0.837
1469.49	0.851
1477.9	0.5772
1486.3	0.7841
1494.71	0.86
1503.12	0.863
1511.52	0.6741
1519.93	0.878
1528.33	0.885
1536.74	0.912
1545.15	0.859
1553.55	0.928
1561.96	0.925
1570.36	0.939
1578.77	0.939
1587.18	0.945
1595.58	0.947
1603.99	0.956
1612.39	0.954
1620.8	0.956
1629.21	0.957
1637.61	0.958
1646.02	0.958
1654.42	0.951
1662.83	0.958
1671.24	0.958
1679.64	0.957
1688.05	0.958
1696.45	0.956
1704.86	0.958
1713.27	0.957
1721.67	0.956
1730.08	0.956
1738.48	0.956
1746.89	0.957
1755.3	0.958
1763.7	0.957
1772.11	0.957
1780.51	0.961
1788.92	0.957
1797.33	0.961
1805.73	0.961
1814.14	0.961
1822.54	0.961
1830.95	0.958
1839.36	0.958
1847.76	0.961
1856.17	0.961
1864.57	0.958
1872.98	0.958
1881.39	0.957
1889.79	0.954
1898.2	0.957
1906.6	0.956
1915.01	0.954
1923.42	0.953
1931.82	0.958
1940.23	0.958
1948.63	0.958
1957.04	0.954
1965.45	0.963
1973.85	0.963
1982.26	0.963
1990.66	0.964
1999.07	0.966
2007.48	0.969
2015.88	0.969
2024.29	0.967
2032.69	0.967
2041.1	0.966
2049.51	0.969
2057.91	0.97
2066.32	0.97
2074.72	0.97
2083.13	0.97
2091.54	0.97
2099.94	0.97
2108.35	0.969
2116.75	0.969
2125.16	0.969
2133.57	0.9695
2141.97	0.972
2150.38	0.97
2158.79	0.97
2167.19	0.97
2175.6	0.97
2184	0.969
2192.41	0.9662
2200.82	0.9666
2209.22	0.966
2217.63	0.964
2226.03	0.9631
2234.44	0.9606
2242.85	0.958
2251.25	0.96
2259.66	0.957
2268.06	0.96
2276.47	0.958
2284.88	0.958
2293.28	0.9639
2301.69	0.966
2310.09	0.967
2318.5	0.9678
2326.91	0.97
2335.31	0.969
2343.72	0.966
2352.12	0.964
2360.53	0.964
2368.94	0.9677
2377.34	0.9661
2385.75	0.964
2394.15	0.964
2402.56	0.9664
2410.97	0.967
2419.37	0.966
2427.78	0.964
2436.18	0.97
2444.59	0.972
2453	0.972
2461.4	0.9728
2469.81	0.9743
2478.21	0.975
2486.62	0.975
2495.03	0.975
2503.43	0.9743
2511.84	0.973
2520.24	0.975
2528.65	0.975
2537.06	0.975
2545.46	0.975
2553.87	0.9736
2562.27	0.9696
2570.68	0.9654
2579.09	0.963
2587.49	0.964
2595.9	0.964
2604.3	0.9574
2612.71	0.9538
2621.12	0.9688
2629.52	0.978
2637.93	0.978
2646.33	0.976
2654.74	0.978
2663.15	0.978
2671.55	0.9775
2679.96	0.9783
2688.36	0.978
2696.77	0.976
2705.18	0.9765
2713.58	0.9782
2721.99	0.979
2730.39	0.9788
2738.8	0.978
2747.21	0.978
2755.61	0.976
2764.02	0.978
2772.42	0.976
2780.83	0.9787
2789.24	0.978
2797.64	0.976
2806.05	0.973
2814.45	0.9757
2822.86	0.9693
2831.27	0.9578
2839.67	0.9283
2848.08	0.835
2856.48	0.8593
2864.89	0.892
2873.3	0.8469
2881.7	0.8602
2890.11	0.9162
2898.51	0.9567
2906.92	0.969
2915.33	0.97
2923.73	0.9576
2932.14	0.9318
2940.54	0.8634
2948.95	0.6918
2957.36	0.3889
2965.76	0.3731
2974.17	0.533
2982.57	0.3945
2990.98	0.3336
2999.39	0.5417
3007.79	0.7728
3016.2	0.892
3024.6	0.846
3033.01	0.8529
3041.42	0.916
3049.82	0.8776
3058.23	0.8299
3066.63	0.8591
3075.04	0.841
3083.45	0.8865
3091.85	0.9088
3100.26	0.8719
3108.66	0.8961
3117.07	0.9125
3125.48	0.9285
3133.88	0.9372
3142.29	0.9449
3150.69	0.956
3159.1	0.9604
3167.51	0.9682
3175.91	0.9702
3184.32	0.9772
3192.72	0.978
3201.13	0.9784
3209.54	0.978
3217.94	0.979
3226.35	0.979
3234.75	0.979
3243.16	0.979
3251.57	0.979
3259.97	0.979
3268.38	0.979
3276.78	0.979
3285.19	0.979
3293.6	0.979
3302	0.98
3310.41	0.98
3318.81	0.98
3327.22	0.98
3335.63	0.98
3344.03	0.98
3352.44	0.98
3360.84	0.98
3369.25	0.98
3377.66	0.98
3386.06	0.9795
3394.47	0.98
3402.87	0.98
3411.28	0.979
3419.69	0.98
3428.09	0.979
3436.5	0.979
3444.9	0.979
3453.31	0.979
3461.72	0.979
3470.12	0.979
3478.53	0.98
3486.93	0.98
3495.34	0.98
3503.75	0.981
3512.15	0.98
3520.56	0.98
3528.96	0.98
3537.37	0.981
3545.78	0.978
3554.18	0.976
3562.59	0.975
3570.99	0.974
3579.4	0.9701
3587.81	0.97
3596.21	0.9779
3604.62	0.9785
3613.02	0.979
3621.43	0.9795
3629.84	0.98
3638.24	0.979
3646.65	0.978
3655.05	0.978
3663.46	0.979
3671.87	0.979
3680.27	0.978
3688.68	0.978
3697.08	0.9799
3705.49	0.98
3713.9	0.98
3722.3	0.98
3730.71	0.982
3739.11	0.985
3747.52	0.986
3755.93	0.986
3764.33	0.986
3772.74	0.986
3781.14	0.985
3789.55	0.9842
3797.96	0.9829
