Infrared Spectrum: 1-Bromo-2,2-dimethylpropane
Formula: C 5 H 11 Br
CAS: 630-17-1
State: gas
Instrument: HP-GC/MS/IRD
Origin: NIST Mass Spectrometry Data Center
1/CM	ABSORBANCE
550	0.0002678
562	0.0003029
574	0.000273
586	0.0003302
598	0.0002197
610	0.0002574
622	0.0003731
634	0.0005174
646	0.0013325
658	0.0029419
670	0.0028899
682	0.0004979
694	0.0002925
706	0.0003185
718	0.0002561
730	0.00052
742	0.0007241
754	0.0004563
766	0.0002015
778	0.0002366
790	0.0001612
802	0.0002327
814	0.0001742
826	0.000221
838	0.0003328
850	0.0003835
862	0.0003549
874	0.0004173
886	0.0008125
898	0.0014157
910	0.0010868
922	0.0003848
934	0.0003354
946	0.0003653
958	0.0003159
970	0.0002457
982	0.0001443
994	0.000143
1006	0.0001794
1018	0.0002951
1030	0.0002756
1042	0.0002145
1054	0.000286
1066	0.0001456
1078	0.0002015
1090	0.0002548
1102	0.0003289
1114	0.0003978
1126	0.0003952
1138	0.0003185
1150	0.0004095
1162	0.0006721
1174	0.0014586
1186	0.0018096
1198	0.001118
1210	0.0007384
1222	0.0006942
1234	0.0010829
1246	0.0023881
1258	0.0029367
1270	0.0017914
1282	0.0005486
1294	0.0003393
1306	0.0002444
1318	0.000234
1330	0.0002756
1342	0.0004537
1354	0.0011518
1366	0.0022204
1378	0.0024908
1390	0.0020228
1402	0.0014547
1414	0.0007046
1426	0.0007007
1438	0.0008294
1450	0.0010478
1462	0.0017914
1474	0.0023023
1486	0.0017355
1498	0.000793
1510	0.0003419
1522	0.0002184
1534	0.0001638
1546	0.0002067
1558	0.0001833
1570	0.0001859
1582	0.0001677
1594	0.0001651
1606	0.0001768
1618	0.0001495
1630	0.0001508
1642	0.0001716
1654	0.0001443
1666	0.0001326
1678	0.000156
1690	0.0001807
1702	0.0001599
1714	0.0001521
1726	0.0001079
1738	0.0001131
1750	7.41e-05
1762	0.0001235
1774	9.75e-05
1786	0.0001079
1798	0.0001196
1810	0.0001144
1822	8.71e-05
1834	0.0001261
1846	9.49e-05
1858	0.0001222
1870	7.8e-05
1882	7.8e-05
1894	0.0001209
1906	0.0001066
1918	0.000104
1930	0.0001053
1942	0.0001001
1954	8.71e-05
1966	9.88e-05
1978	9.62e-05
1990	0.0001118
2002	0.0001235
2014	8.45e-05
2026	9.36e-05
2038	8.45e-05
2050	9.1e-05
2062	8.97e-05
2074	3.9e-05
2086	8.06e-05
2098	7.67e-05
2110	0.0001001
2122	0.0001092
2134	9.36e-05
2146	8.84e-05
2158	0.0001014
2170	7.15e-05
2182	6.37e-05
2194	7.02e-05
2206	5.07e-05
2218	7.02e-05
2230	9.1e-05
2242	0.000104
2254	7.8e-05
2266	7.67e-05
2278	8.19e-05
2290	7.41e-05
2302	7.93e-05
2314	8.19e-05
2326	5.46e-05
2338	9.23e-05
2350	4.94e-05
2362	4.29e-05
2374	6.24e-05
2386	3.25e-05
2398	4.81e-05
2410	8.19e-05
2422	8.45e-05
2434	8.06e-05
2446	4.55e-05
2458	2.34e-05
2470	2.86e-05
2482	3.64e-05
2494	4.16e-05
2506	2.34e-05
2518	6.5e-05
2530	9.1e-06
2542	1.17e-05
2554	8.19e-05
2566	8.32e-05
2578	1.43e-05
2590	5.98e-05
2602	0
2614	2.99e-05
2626	3.25e-05
2638	6.11e-05
2650	4.55e-05
2662	7.54e-05
2674	7.93e-05
2686	8.32e-05
2698	5.59e-05
2710	0.0001404
2722	0.0002015
2734	0.000182
2746	0.0001313
2758	0.0001495
2770	0.000143
2782	0.0001469
2794	0.0001469
2806	0.0002548
2818	0.0003562
2830	0.0004615
2842	0.0006682
2854	0.0011258
2866	0.002067
2878	0.0029809
2890	0.0032266
2902	0.0032851
2914	0.0035204
2926	0.0040287
2938	0.0052442
2950	0.0082888
2962	0.0124098
2974	0.0122681
2986	0.0067808
2998	0.0024401
3010	0.0012389
3022	0.0005616
3034	0.0002808
3046	0.0002379
3058	0.000208
3070	0.0002249
3082	0.0002574
3094	0.0002223
3106	0.0002015
3118	0.0001963
3130	0.0001417
3142	0.0001495
3154	0.0001703
3166	0.000156
3178	0.0001729
3190	0.0001079
3202	0.0002054
3214	0.0001937
3226	0.0001781
3238	0.0001131
3250	6.76e-05
3262	0.0001274
3274	7.67e-05
3286	0.0001157
3298	7.67e-05
3310	0.0001612
3322	4.03e-05
3334	7.93e-05
3346	9.36e-05
3358	9.75e-05
3370	6.24e-05
3382	9.23e-05
3394	0.0001118
3406	0.0001248
3418	5.33e-05
3430	6.63e-05
3442	0.0002015
3454	0.0001079
3466	4.55e-05
3478	0.0001248
3490	0.0001209
3502	0.0001209
3514	3.9e-06
3526	2.6e-06
3538	0.0001378
3550	7.67e-05
3562	8.97e-05
3574	3.25e-05
3586	0.0001222
3598	0.0001274
3610	0.0001118
3622	8.06e-05
3634	0.0001183
3646	0.0002158
3658	9.36e-05
3670	6.24e-05
3682	9.88e-05
3694	0.0001092
3706	0.0001092
3718	7.28e-05
3730	0.000104
3742	0.0001235
3754	0.0001443
3766	0.0001937
3778	0.0001066
3790	0.0001378
3802	7.93e-05
3814	0.0001131
3826	0.0001573
3838	0.0001508
