Infrared Spectrum: Alpha-CHLORO ACRYLONITRILE
Formula: C3 H2 Cl N
CAS: 920-37-6
State: LIQUID
Boiling point: 87-88 C
Class: COBLENTZ
Instrument: PERKIN-ELMER (GRATING)
Sampling: TRANSMISSION
Path length: 0.0022 CM
Resolution: 4
Origin: STANDARD OIL OF OHIO
MICROMETERS	TRANSMITTANCE
2.027	0.984
2.06082	0.984
2.09464	0.984
2.12846	0.984
2.16228	0.984
2.1961	0.984
2.22992	0.981
2.26374	0.952
2.29756	0.979
2.33138	0.981
2.3652	0.96
2.39902	0.967
2.43284	0.974
2.46666	0.981
2.50048	0.977
2.5343	0.974
2.56812	0.977
2.60194	0.979
2.63576	0.977
2.66958	0.982
2.7034	0.984
2.73722	0.974
2.77103	0.969
2.80485	0.969
2.83867	0.969
2.87249	0.962
2.90631	0.959
2.94013	0.953
2.97395	0.943
3.00777	0.948
3.04159	0.95
3.07541	0.95
3.10923	0.904
3.14305	0.851
3.17687	0.779
3.21069	0.609
3.24451	0.839
3.27833	0.725
3.31215	0.59
3.34597	0.8
3.37979	0.766
3.41361	0.861
3.44743	0.938
3.48125	0.95
3.51507	0.959
3.54889	0.967
3.58271	0.972
3.61653	0.965
3.65035	0.947
3.68417	0.964
3.71799	0.974
3.75181	0.981
3.78563	0.981
3.81945	0.984
3.85327	0.986
3.88709	0.986
3.92091	0.986
3.95473	0.986
3.98855	0.986
4.02237	0.979
4.05619	0.972
4.09001	0.977
4.12383	0.981
4.15765	0.979
4.19147	0.977
4.22528	0.982
4.2591	0.986
4.29292	0.986
4.32674	0.984
4.36056	0.982
4.39438	0.976
4.4282	0.93
4.46202	0.878
4.49584	0.667
4.52966	0.935
4.56348	0.972
4.5973	0.977
4.63112	0.984
4.66494	0.986
4.69876	0.988
4.73258	0.989
4.7664	0.989
4.80022	0.989
4.83404	0.989
4.86786	0.986
4.90168	0.979
4.9355	0.984
4.96932	0.989
5.00314	0.986
5.03696	0.981
5.07078	0.986
5.1046	0.984
5.13842	0.984
5.17224	0.984
5.20606	0.981
5.23988	0.97
5.2737	0.943
5.30752	0.897
5.34134	0.843
5.37516	0.815
5.40898	0.831
5.4428	0.887
5.47662	0.926
5.51044	0.952
5.54426	0.967
5.57808	0.97
5.6119	0.953
5.64572	0.948
5.67953	0.953
5.71335	0.962
5.74717	0.964
5.78099	0.953
5.81481	0.93
5.84863	0.902
5.88245	0.904
5.91627	0.928
5.95009	0.938
5.98391	0.938
6.01773	0.928
6.05155	0.918
6.08537	0.899
6.11919	0.873
6.15301	0.827
6.18683	0.694
6.22065	0.191
6.25447	0.167
6.28829	0.556
6.32211	0.737
6.35593	0.807
6.38975	0.894
6.42357	0.916
6.45739	0.93
6.49121	0.936
6.52503	0.945
6.55885	0.95
6.59267	0.952
6.62649	0.952
6.66031	0.952
6.69413	0.948
6.72795	0.935
6.76177	0.933
6.79559	0.935
6.82941	0.933
6.86323	0.921
6.89705	0.897
6.93087	0.849
6.96469	0.807
6.99851	0.723
7.03233	0.645
7.06615	0.668
7.09997	0.725
7.13378	0.795
7.1676	0.831
7.20142	0.836
7.23524	0.79
7.26906	0.527
7.30288	0.327
7.3367	0.609
7.37052	0.781
7.40434	0.854
7.43816	0.889
7.47198	0.906
7.5058	0.912
7.53962	0.911
7.57344	0.906
7.60726	0.901
7.64108	0.89
7.6749	0.889
7.70872	0.892
7.74254	0.904
7.77636	0.902
7.81018	0.865
7.844	0.86
7.87782	0.87
7.91164	0.875
7.94546	0.873
7.97928	0.872
8.0131	0.872
8.04692	0.865
8.08074	0.861
8.11456	0.865
8.14838	0.856
8.1822	0.825
8.21602	0.8
8.24984	0.783
8.28366	0.771
8.31748	0.773
8.3513	0.773
8.38512	0.744
8.41894	0.658
8.45276	0.539
8.48658	0.421
8.5204	0.273
8.55422	0.097
8.58803	0.018
8.62185	0.011
8.65567	0.064
8.68949	0.308
8.72331	0.513
8.75713	0.609
8.79095	0.67
8.82477	0.745
8.85859	0.788
8.89241	0.8
8.92623	0.8
8.96005	0.752
8.99387	0.616
9.02769	0.433
9.06151	0.441
9.09533	0.588
9.12915	0.704
9.16297	0.764
9.19679	0.784
9.23061	0.802
9.26443	0.839
9.29825	0.861
9.33207	0.87
9.36589	0.875
9.39971	0.877
9.43353	0.88
9.46735	0.88
9.50117	0.88
9.53499	0.877
9.56881	0.875
9.60263	0.877
9.63645	0.883
9.67027	0.883
9.70409	0.878
9.73791	0.883
9.77173	0.892
9.80555	0.894
9.83937	0.889
9.87319	0.87
9.90701	0.853
9.94083	0.844
9.97465	0.807
10.0085	0.774
10.0423	0.762
10.0761	0.761
10.1099	0.73
10.1437	0.67
10.1776	0.658
10.2114	0.68
10.2452	0.704
10.279	0.711
10.3128	0.704
10.3467	0.677
10.3805	0.651
10.4143	0.622
10.4481	0.59
10.4819	0.547
10.5158	0.472
10.5496	0.395
10.5834	0.295
10.6172	0.204
10.651	0.136
10.6849	0.083
10.7187	0.049
10.7525	0.025
10.7863	0.018
10.8201	0.018
10.854	0.022
10.8878	0.049
10.9216	0.136
10.9554	0.238
10.9892	0.348
11.0231	0.459
11.0569	0.525
11.0907	0.583
11.1245	0.605
11.1583	0.588
11.1922	0.476
11.226	0.283
11.2598	0.136
11.2936	0.1
11.3274	0.182
11.3613	0.322
11.3951	0.45
11.4289	0.53
11.4627	0.612
11.4965	0.677
11.5304	0.732
11.5642	0.776
11.598	0.803
11.6318	0.829
11.6656	0.843
11.6995	0.853
11.7333	0.854
11.7671	0.854
11.8009	0.839
11.8347	0.819
11.8686	0.805
11.9024	0.791
11.9362	0.781
11.97	0.773
12.0038	0.766
12.0377	0.754
12.0715	0.75
12.1053	0.767
12.1391	0.802
12.1729	0.832
12.2067	0.844
12.2406	0.858
12.2744	0.863
12.3082	0.865
12.342	0.866
12.3758	0.868
12.4097	0.872
12.4435	0.875
12.4773	0.877
12.5111	0.88
12.5449	0.878
12.5788	0.868
12.6126	0.841
12.6464	0.788
12.6802	0.723
12.714	0.656
12.7479	0.645
12.7817	0.67
12.8155	0.721
12.8493	0.754
12.8831	0.773
12.917	0.781
12.9508	0.783
12.9846	0.783
13.0184	0.783
13.0522	0.783
13.0861	0.783
13.1199	0.783
13.1537	0.776
13.1875	0.75
13.2213	0.694
13.2552	0.617
13.289	0.523
13.3228	0.448
13.3566	0.407
13.3904	0.394
13.4243	0.409
13.4581	0.457
13.4919	0.525
13.5257	0.588
13.5595	0.624
13.5934	0.633
13.6272	0.616
13.661	0.575
13.6948	0.544
13.7286	0.54
13.7625	0.556
13.7963	0.588
13.8301	0.622
13.8639	0.655
13.8977	0.679
13.9316	0.697
13.9654	0.713
13.9992	0.718
14.033	0.72
14.0668	0.72
14.1007	0.716
14.1345	0.709
14.1683	0.701
14.2021	0.697
14.2359	0.697
14.2698	0.701
14.3036	0.709
14.3374	0.723
14.3712	0.74
14.405	0.75
14.4389	0.761
14.4727	0.766
14.5065	0.767
14.5403	0.769
14.5741	0.769
14.608	0.769
14.6418	0.766
14.6756	0.762
14.7094	0.757
14.7432	0.754
14.7771	0.749
14.8109	0.742
14.8447	0.732
14.8785	0.716
14.9123	0.697
14.9462	0.672
14.98	0.643
15.0138	0.605
15.0476	0.53
15.0814	0.407
15.1152	0.313
15.1491	0.225
15.1829	0.151
15.2167	0.116
15.2505	0.088
15.2843	0.087
15.3182	0.107
15.352	0.18
15.3858	0.283
