Infrared Spectrum: PROPENENITRILE, 2-CHLORO-
Formula: C3 H2 Cl N
CAS: 920-37-6
State: LIQUID (NEAT)
Class: COBLENTZ III
Instrument: PERKIN-ELMER 521 (GRATING)
Sampling: TRANSMISSION
Path length: 0.003 CM
Resolution: 4
Origin: STANDARD OIL OF OHIO
1/CM	TRANSMITTANCE
629.921	0.625
638.357	0.615
646.794	0.487
655.23	0.1733
663.667	0.109
672.103	0.5032
680.54	0.617
688.976	0.654
697.413	0.664
705.849	0.6181
714.286	0.622
722.722	0.7089
731.159	0.763
739.595	0.7949
748.032	0.836
756.468	0.86
764.905	0.868
773.341	0.876
781.777	0.887
790.214	0.89
798.65	0.888
807.087	0.881
815.523	0.868
823.96	0.856
832.396	0.785
840.833	0.696
849.269	0.816
857.706	0.843
866.142	0.824
874.579	0.7671
883.015	0.605
891.452	0.2125
899.888	0.183
908.324	0.477
916.761	0.318
925.197	0.0471
933.634	0.013
942.07	0.016
950.507	0.064
958.943	0.2997
967.38	0.494
975.816	0.546
984.253	0.637
992.689	0.7029
1001.13	0.768
1009.56	0.804
1018	0.811
1026.44	0.822
1034.87	0.838
1043.31	0.824
1051.74	0.807
1060.18	0.811
1068.62	0.814
1077.05	0.807
1085.49	0.794
1093.93	0.763
1102.36	0.639
1110.8	0.3942
1119.24	0.456
1127.67	0.6689
1136.11	0.674
1144.55	0.5343
1152.98	0.376
1161.42	0.0875
1169.86	0.033
1178.29	0.0819
1186.73	0.247
1195.16	0.4967
1203.6	0.629
1212.04	0.6819
1220.47	0.72
1228.91	0.7679
1237.35	0.794
1245.78	0.799
1254.22	0.804
1262.66	0.817
1271.09	0.826
1279.53	0.846
1287.97	0.854
1296.4	0.854
1304.84	0.849
1313.28	0.844
1321.71	0.846
1330.15	0.843
1338.58	0.826
1347.02	0.801
1355.46	0.73
1363.89	0.5802
1372.33	0.4009
1380.77	0.4897
1389.2	0.694
1397.64	0.721
1406.08	0.693
1414.51	0.6351
1422.95	0.603
1431.39	0.6389
1439.82	0.76
1448.26	0.806
1456.7	0.854
1465.13	0.871
1473.57	0.87
1482	0.866
1490.44	0.863
1498.88	0.87
1507.31	0.876
1515.75	0.881
1524.19	0.88
1532.62	0.873
1541.06	0.861
1549.5	0.856
1557.93	0.849
1566.37	0.831
1574.81	0.799
1583.24	0.6772
1591.68	0.655
1600.11	0.3083
1608.55	0.02
1616.99	0.1259
1625.42	0.625
1633.86	0.728
1642.3	0.789
1650.73	0.807
1659.17	0.839
1667.61	0.849
1676.04	0.87
1684.48	0.873
1692.92	0.876
1701.35	0.875
1709.79	0.873
1718.23	0.871
1726.66	0.868
1735.1	0.868
1743.53	0.868
1751.97	0.871
1760.41	0.868
1768.84	0.86
1777.28	0.843
1785.72	0.829
1794.15	0.827
1802.59	0.824
1811.03	0.853
1819.46	0.856
1827.9	0.846
1836.34	0.821
1844.77	0.787
1853.21	0.738
1861.65	0.696
1870.08	0.682
1878.52	0.689
1886.95	0.723
1895.39	0.779
1903.83	0.824
1912.26	0.851
1920.7	0.871
1929.14	0.878
1937.57	0.883
1946.01	0.887
1954.45	0.887
1962.88	0.888
1971.32	0.893
1979.76	0.898
1988.19	0.898
1996.63	0.898
2005.07	0.898
2013.5	0.898
2021.94	0.898
2030.37	0.897
2038.81	0.892
2047.25	0.883
2055.68	0.878
2064.12	0.888
2072.56	0.897
2080.99	0.898
2089.43	0.898
2097.87	0.892
2106.3	0.9
2114.74	0.9
2123.18	0.898
2131.61	0.898
2140.05	0.898
2148.49	0.897
2156.92	0.895
2165.36	0.893
2173.79	0.895
2182.23	0.8881
2190.67	0.885
2199.1	0.888
2207.54	0.881
2215.98	0.8681
2224.41	0.8531
2232.85	0.7427
2241.29	0.3652
2249.72	0.6095
2258.16	0.8059
2266.6	0.7635
2275.03	0.785
2283.47	0.8557
2291.91	0.8729
2300.34	0.8799
2308.78	0.881
2317.21	0.8829
2325.65	0.8849
2334.09	0.8869
2342.52	0.888
2350.96	0.8919
2359.4	0.892
2367.83	0.893
2376.27	0.8921
2384.71	0.888
2393.14	0.887
2401.58	0.8831
2410.02	0.8751
2418.45	0.868
2426.89	0.873
2435.33	0.8809
2443.76	0.885
2452.2	0.883
2460.63	0.881
2469.07	0.88
2477.51	0.8751
2485.94	0.8653
2494.38	0.8528
2502.82	0.8727
2511.25	0.876
2519.69	0.8809
2528.13	0.887
2536.56	0.885
2545	0.883
2553.44	0.888
2561.87	0.89
2570.31	0.888
2578.75	0.888
2587.18	0.8871
2595.62	0.887
2604.05	0.888
2612.49	0.89
2620.93	0.89
2629.36	0.89
2637.8	0.888
2646.24	0.887
2654.67	0.887
2663.11	0.887
2671.55	0.887
2679.98	0.885
2688.42	0.885
2696.86	0.883
2705.29	0.881
2713.73	0.881
2722.17	0.88
2730.6	0.88
2739.04	0.876
2747.47	0.8651
2755.91	0.8531
2764.35	0.8129
2772.78	0.7937
2781.22	0.8471
2789.66	0.849
2798.09	0.8592
2806.53	0.871
2814.97	0.873
2823.4	0.873
2831.84	0.871
2840.28	0.8683
2848.71	0.8651
2857.15	0.8613
2865.59	0.861
2874.02	0.86
2882.46	0.8563
2890.89	0.8493
2899.33	0.8457
2907.77	0.849
2916.2	0.8443
2924.64	0.8363
2933.08	0.8262
2941.51	0.8162
2949.95	0.8045
2958.39	0.785
2966.82	0.6824
2975.26	0.6067
2983.7	0.7592
2992.13	0.772
3000.57	0.7653
3009.01	0.7252
3017.44	0.637
3025.88	0.4586
3034.31	0.3769
3042.75	0.3189
3051.19	0.3278
3059.62	0.6167
3068.06	0.7154
3076.5	0.7346
3084.93	0.7466
3093.37	0.7437
3101.81	0.7334
3110.24	0.7053
3118.68	0.6162
3127.12	0.3871
3135.55	0.1669
3143.99	0.4082
3152.43	0.6109
3160.86	0.6912
3169.3	0.7248
3177.73	0.7396
3186.17	0.7312
3194.61	0.707
3203.04	0.5963
3211.48	0.6438
3219.92	0.7586
3228.35	0.7832
3236.79	0.7936
3245.23	0.8018
3253.66	0.806
3262.1	0.811
3270.54	0.816
3278.97	0.817
3287.41	0.816
3295.85	0.816
3304.28	0.817
3312.72	0.816
3321.15	0.816
3329.59	0.816
3338.03	0.817
3346.46	0.816
3354.9	0.814
3363.34	0.814
3371.77	0.812
3380.21	0.8075
3388.65	0.806
3397.08	0.802
3405.52	0.8078
3413.96	0.8168
3422.39	0.819
3430.83	0.821
3439.27	0.824
3447.7	0.8262
3456.14	0.8268
3464.57	0.831
3473.01	0.834
3481.45	0.838
3489.88	0.8405
3498.32	0.8437
3506.76	0.8488
3515.19	0.8495
3523.63	0.849
3532.07	0.849
3540.5	0.851
3548.94	0.851
3557.38	0.8525
3565.81	0.851
3574.25	0.851
3582.69	0.849
3591.12	0.849
3599.56	0.849
3607.99	0.849
3616.43	0.8505
3624.87	0.851
3633.3	0.8525
3641.74	0.853
3650.18	0.8516
3658.61	0.851
3667.05	0.853
3675.49	0.851
3683.92	0.851
3692.36	0.849
3700.8	0.849
3709.23	0.851
3717.67	0.853
3726.11	0.853
3734.54	0.853
3742.98	0.853
3751.41	0.851
3759.85	0.851
3768.29	0.851
3776.72	0.849
3785.16	0.8446
3793.6	0.8474
3802.03	0.849
3810.47	0.8483
3818.91	0.8405
3827.34	0.8296
3835.78	0.821
3844.22	0.8389
3852.65	0.8454
3861.09	0.8504
3869.53	0.851
3877.96	0.851
3886.4	0.8496
3894.83	0.846
3903.27	0.843
3911.71	0.839
3920.14	0.836
3928.58	0.8374
3937.02	0.843
3945.45	0.843
3953.89	0.8453
