Infrared Spectrum: Pyrrolidine
Formula: C 4 H 9 N
CAS: 123-75-1
State: gas
Instrument: HP-GC/MS/IRD
Origin: NIST Mass Spectrometry Data Center
1/CM	ABSORBANCE
550	0.0037583
562	0.0063248
574	0.0065136
586	0.0052333
598	0.0036167
610	0.0022833
622	0.0015045
634	0.0013157
646	0.0013039
658	0.0015694
670	0.0018998
682	0.0022184
694	0.0026786
706	0.0031978
718	0.0041123
730	0.005192
742	0.0065903
754	0.0080476
766	0.0096347
778	0.0099533
790	0.0097409
802	0.0083544
814	0.0064546
826	0.0050091
838	0.0042598
850	0.0038055
862	0.003599
874	0.0032922
886	0.0034633
898	0.0039058
910	0.0037701
922	0.00295
934	0.0020709
946	0.0012685
958	0.0007316
970	0.0004779
982	0.0003363
994	0.0003068
1006	0.0002301
1018	0.0003953
1030	0.0006608
1042	0.0009912
1054	0.001947
1066	0.0036757
1078	0.0053454
1090	0.0062186
1102	0.0059236
1114	0.0042421
1126	0.0025193
1138	0.001475
1150	0.0010384
1162	0.0010443
1174	0.0012213
1186	0.001357
1198	0.0014868
1210	0.0014278
1222	0.001475
1234	0.001416
1246	0.0014514
1258	0.00177
1270	0.0020532
1282	0.0020827
1294	0.0019765
1306	0.0015517
1318	0.0011505
1330	0.0010738
1342	0.0010679
1354	0.0010915
1366	0.0011269
1378	0.0014986
1390	0.0021535
1402	0.0027258
1414	0.0027435
1426	0.0024249
1438	0.0020768
1450	0.0018408
1462	0.0018408
1474	0.0014691
1486	0.0010325
1498	0.0005546
1510	0.0003068
1522	0.000177
1534	0.0001475
1546	9.44e-05
1558	5.31e-05
1570	5.31e-05
1582	0
1594	3.54e-05
1606	0.0001298
1618	0.0001888
1630	0.0002065
1642	0.0002242
1654	0.0002242
1666	0.0002006
1678	0.0002065
1690	0.0002301
1702	0.0002478
1714	0.0002301
1726	0.0001711
1738	0.0001593
1750	0.0001829
1762	0.0001829
1774	0.0001888
1786	0.0001416
1798	0.0001947
1810	0.0002242
1822	0.000295
1834	0.0003009
1846	0.0002773
1858	0.0002655
1870	0.0002596
1882	0.000236
1894	0.0002478
1906	0.0002183
1918	0.0002242
1930	0.0001947
1942	0.0002242
1954	0.0002124
1966	0.0002537
1978	0.000295
1990	0.0003245
2002	0.0003245
2014	0.0003127
2026	0.0003304
2038	0.000295
2050	0.000295
2062	0.0002596
2074	0.0002773
2086	0.0002655
2098	0.0002891
2110	0.0002773
2122	0.0002773
2134	0.0003599
2146	0.0003245
2158	0.0003304
2170	0.0003304
2182	0.0003717
2194	0.0003422
2206	0.0003245
2218	0.0002891
2230	0.0003245
2242	0.0002714
2254	0.0003127
2266	0.0003009
2278	0.0003068
2290	0.0002891
2302	0.0003068
2314	0.0003363
2326	0.0003422
2338	0.0003599
2350	0.0003776
2362	0.0003894
2374	0.0003186
2386	0.0002419
2398	0.0002065
2410	0.0002124
2422	0.0002183
2434	0.0002124
2446	0.0002301
2458	0.0002891
2470	0.0003068
2482	0.0002891
2494	0.0003422
2506	0.0003363
2518	0.0003186
2530	0.000354
2542	0.0003363
2554	0.0003953
2566	0.0004602
2578	0.0005192
2590	0.0006372
2602	0.0007788
2614	0.0008791
2626	0.0009912
2638	0.0010974
2650	0.0010384
2662	0.0010974
2674	0.0012154
2686	0.0012685
2698	0.0014396
2710	0.0016402
2722	0.0018113
2734	0.0022479
2746	0.0027376
2758	0.0033866
2770	0.0043424
2782	0.0060711
2794	0.0089857
2806	0.0118708
2818	0.0166793
2830	0.0164964
2842	0.0173401
2854	0.0191809
2866	0.0235174
2878	0.0276651
2890	0.0299484
2902	0.0301372
2914	0.0300841
2926	0.029854
2938	0.0360903
2950	0.0422263
2962	0.0464389
2974	0.0485983
2986	0.0314647
2998	0.0217651
3010	0.011092
3022	0.0057879
3034	0.003717
3046	0.0025783
3058	0.0017818
3070	0.0012803
3082	0.0009499
3094	0.0007847
3106	0.0006431
3118	0.0005546
3130	0.0004779
3142	0.0004484
3154	0.0003658
3166	0.0003717
3178	0.0003835
3190	0.0003422
3202	0.0003481
3214	0.0003717
3226	0.0003776
3238	0.0003068
3250	0.0003068
3262	0.0002655
3274	0.0002478
3286	0.0002006
3298	0.0002537
3310	0.0003009
3322	0.0003304
3334	0.0003894
3346	0.0003658
3358	0.0003481
3370	0.0003422
3382	0.0003304
3394	0.0002478
3406	0.0002832
3418	0.0003304
3430	0.0003245
3442	0.0003245
3454	0.0003363
3466	0.0003009
3478	0.0003658
3490	0.0003481
3502	0.0003894
3514	0.0004661
3526	0.0004071
3538	0.0004661
3550	0.0003717
3562	0.0004071
3574	0.0004956
3586	0.0004012
3598	0.0004602
3610	0.0004012
3622	0.0003599
3634	0.0003953
3646	0.0004661
3658	0.0003894
3670	0.000531
3682	0.0005192
3694	0.0004189
3706	0.0004484
3718	0.0004307
3730	0.0003658
3742	0.0005133
3754	0.000531
3766	0.0004956
3778	0.0004779
3790	0.0005074
3802	0.0005369
3814	0.0005605
3826	0.0005133
3838	0.0006254
