Infrared Spectrum: 1,4-DIIODOBUTANE
Formula: C4 H8 I2
CAS: 628-21-7
State: LIQUID
Class: COBLENTZ
Instrument: Not specified, most likely a prism, grating, or hybrid spectrometer.
Sampling: TRANSMISSION
Path length: 0.003 CM
Resolution: 4
Origin: WYANDOTTE CHEMICALS CORP., WYANDOTTE, MICHIGAN, USA
MICROMETERS	TRANSMITTANCE
2.02	0.971
2.06074	0.969
2.10148	0.971
2.14222	0.964
2.18295	0.95
2.22369	0.933
2.26443	0.938
2.30517	0.928
2.34591	0.928
2.38665	0.933
2.42739	0.935
2.46813	0.933
2.50886	0.938
2.5496	0.931
2.59034	0.935
2.63108	0.938
2.67182	0.938
2.71256	0.936
2.7533	0.936
2.79404	0.933
2.83477	0.93
2.87551	0.928
2.91625	0.925
2.95699	0.923
2.99773	0.918
3.03847	0.914
3.07921	0.908
3.11995	0.882
3.16068	0.868
3.20142	0.865
3.24216	0.853
3.2829	0.822
3.32364	0.715
3.36438	0.531
3.40512	0.362
3.44586	0.599
3.48659	0.63
3.52733	0.62
3.56807	0.841
3.60881	0.863
3.64955	0.88
3.69029	0.879
3.73103	0.884
3.77176	0.882
3.8125	0.877
3.85324	0.88
3.89398	0.887
3.93472	0.889
3.97546	0.889
4.0162	0.885
4.05694	0.884
4.09767	0.882
4.13841	0.877
4.17915	0.879
4.21989	0.867
4.26063	0.877
4.30137	0.887
4.34211	0.89
4.38285	0.88
4.42358	0.873
4.46432	0.88
4.50506	0.87
4.5458	0.877
4.58654	0.877
4.62728	0.867
4.66802	0.87
4.70876	0.868
4.74949	0.875
4.79023	0.882
4.83097	0.884
4.87171	0.879
4.91245	0.879
4.95319	0.879
4.99393	0.879
5.03466	0.879
5.0754	0.879
5.11614	0.879
5.15688	0.88
5.19762	0.872
5.23836	0.875
5.2791	0.877
5.31984	0.877
5.36057	0.88
5.40131	0.879
5.44205	0.879
5.48279	0.877
5.52353	0.877
5.56427	0.875
5.60501	0.87
5.64575	0.873
5.68648	0.872
5.72722	0.87
5.76796	0.868
5.8087	0.867
5.84944	0.867
5.89018	0.867
5.93092	0.863
5.97166	0.855
6.01239	0.856
6.05313	0.855
6.09387	0.85
6.13461	0.839
6.17535	0.833
6.21609	0.833
6.25683	0.839
6.29757	0.841
6.3383	0.844
6.37904	0.844
6.41978	0.844
6.46052	0.838
6.50126	0.829
6.542	0.821
6.58274	0.81
6.62347	0.817
6.66421	0.812
6.70495	0.797
6.74569	0.775
6.78643	0.671
6.82717	0.548
6.86791	0.405
6.90865	0.315
6.94938	0.347
6.99012	0.194
7.03086	0.56
7.0716	0.722
7.11234	0.768
7.15308	0.785
7.19382	0.793
7.23456	0.787
7.27529	0.724
7.31603	0.696
7.35677	0.659
7.39751	0.698
7.43825	0.747
7.47899	0.729
7.51973	0.766
7.56047	0.758
7.6012	0.715
7.64194	0.609
7.68268	0.529
7.72342	0.502
7.76416	0.34
7.8049	0.5
7.84564	0.582
7.88638	0.437
7.92711	0.289
7.96785	0.306
8.00859	0.245
8.04933	0.137
8.09007	0.039
8.13081	0.206
8.17155	0.463
8.21228	0.505
8.25302	0.429
8.29376	0.226
8.3345	0.12
8.37524	0.098
8.41598	0.081
8.45672	0.173
8.49746	0.442
8.53819	0.587
8.57893	0.533
8.61967	0.32
8.66041	0.524
8.70115	0.565
8.74189	0.475
8.78263	0.589
8.82337	0.689
8.8641	0.674
8.90484	0.613
8.94558	0.691
8.98632	0.727
9.02706	0.73
9.0678	0.739
9.10854	0.741
9.14928	0.739
9.19001	0.72
9.23075	0.72
9.27149	0.739
9.31223	0.744
9.35297	0.761
9.39371	0.761
9.43445	0.758
9.47519	0.756
9.51592	0.77
9.55666	0.78
9.5974	0.78
9.63814	0.766
9.67888	0.764
9.71962	0.764
9.76036	0.759
9.80109	0.734
9.84183	0.717
9.88257	0.734
9.92331	0.735
9.96405	0.722
10.0048	0.732
10.0455	0.747
10.0863	0.763
10.127	0.768
10.1677	0.759
10.2085	0.732
10.2492	0.754
10.29	0.761
10.3307	0.749
10.3714	0.725
10.4122	0.71
10.4529	0.671
10.4937	0.603
10.5344	0.557
10.5751	0.58
10.6159	0.662
10.6566	0.718
10.6973	0.747
10.7381	0.775
10.7788	0.78
10.8196	0.787
10.8603	0.792
10.901	0.795
10.9418	0.802
10.9825	0.809
11.0233	0.809
11.064	0.805
11.1047	0.8
11.1455	0.797
11.1862	0.78
11.2269	0.751
11.2677	0.729
11.3084	0.737
11.3492	0.741
11.3899	0.747
11.4306	0.752
11.4714	0.754
11.5121	0.759
11.5529	0.763
11.5936	0.756
11.6343	0.746
11.6751	0.737
11.7158	0.739
11.7566	0.761
11.7973	0.77
11.838	0.773
11.8788	0.768
11.9195	0.759
11.9602	0.749
12.001	0.72
12.0417	0.686
12.0825	0.654
12.1232	0.666
12.1639	0.688
12.2047	0.696
12.2454	0.708
12.2862	0.72
12.3269	0.725
12.3676	0.725
12.4084	0.718
12.4491	0.713
12.4898	0.708
12.5306	0.7
12.5713	0.693
12.6121	0.689
12.6528	0.693
12.6935	0.696
12.7343	0.698
12.775	0.695
12.8158	0.683
12.8565	0.654
12.8972	0.62
12.938	0.594
12.9787	0.599
13.0195	0.628
13.0602	0.65
13.1009	0.666
13.1417	0.678
13.1824	0.681
13.2231	0.678
13.2639	0.654
13.3046	0.614
13.3454	0.543
13.3861	0.478
13.4268	0.441
13.4676	0.458
13.5083	0.5
13.5491	0.534
13.5898	0.558
13.6305	0.567
13.6713	0.553
13.712	0.512
13.7528	0.466
13.7935	0.427
13.8342	0.408
13.875	0.425
13.9157	0.471
13.9564	0.507
13.9972	0.558
14.0379	0.587
14.0787	0.63
14.1194	0.671
14.1601	0.695
14.2009	0.722
14.2416	0.729
14.2824	0.742
14.3231	0.751
14.3638	0.759
14.4046	0.766
14.4453	0.771
14.486	0.771
14.5268	0.775
14.5675	0.776
14.6083	0.776
14.649	0.775
14.6897	0.773
14.7305	0.775
14.7712	0.775
14.812	0.775
14.8527	0.775
14.8934	0.775
14.9342	0.771
14.9749	0.763
15.0157	0.749
15.0564	0.752
15.0971	0.759
15.1379	0.766
15.1786	0.763
15.2193	0.761
15.2601	0.756
15.3008	0.752
15.3416	0.749
15.3823	0.746
15.423	0.746
15.4638	0.744
15.5045	0.739
15.5453	0.737
15.586	0.735
15.6267	0.734
15.6675	0.732
15.7082	0.727
15.7489	0.722
15.7897	0.722
15.8304	0.722
15.8712	0.718
15.9119	0.715
15.9526	0.712
