Infrared Spectrum: Butane, 1,4-diiodo-
Formula: C 4 H 8 I 2
CAS: 628-21-7
State: gas
Origin: Sadtler Research Labs Under US-EPA Contract
1/CM	ABSORBANCE
450	0.0310215
462	0.00867266
474	0.00817232
486	0.0173453
498	0.0390826
510	0.0624321
522	0.0415843
534	0.0230715
546	0.0102849
558	0.0103961
570	0.0261848
582	0.0341347
594	0.0519248
606	0.0510909
618	0.0310215
630	0.016845
642	0.00428074
654	0.00794994
666	0.0103961
678	0.00500346
690	0.0199027
702	0.0197915
714	0.0417511
726	0.0851144
738	0.0672687
750	0.0779984
762	0.0445308
774	0.0430854
786	0.0244614
798	0.0250729
810	0.0188464
822	0.0200694
834	0.0187908
846	0.0139541
858	0.0174565
870	0.0216261
882	0.0244058
894	0.0166226
906	0.0117859
918	0.0121751
930	0.0121751
942	0.0242946
954	0.0454203
966	0.0269631
978	0.0199027
990	0.0202362
1002	0.0222376
1014	0.0190687
1026	0.0120083
1038	0.0128978
1050	0.0108964
1062	0.0118971
1074	0.0148992
1086	0.0191243
1098	0.0203474
1110	0.0276858
1122	0.0556496
1134	0.0674911
1146	0.09968
1158	0.114857
1170	0.126866
1182	0.306045
1194	0.368533
1206	0.245614
1218	0.127811
1230	0.178846
1242	0.55594
1254	0.239499
1266	0.162057
1278	0.09968
1290	0.121973
1302	0.0732729
1314	0.0443084
1326	0.0231271
1338	0.0346907
1350	0.0514245
1362	0.0498678
1374	0.0223488
1386	0.0147324
1398	0.0142321
1410	0.0212925
1422	0.0593744
1434	0.16378
1446	0.132758
1458	0.086949
1470	0.0360249
1482	0.0158443
1494	0.0092286
1506	0.007394
1518	0.00561499
1530	0.00450311
1542	0.00350242
1554	0.00355802
1566	0.00294648
1578	0.00216817
1590	0.00294648
1602	0.00311326
1614	0.00283529
1626	0.00255732
1638	0.00227935
1650	0.00216817
1662	0.00283529
1674	0.00250173
1686	0.00133426
1698	0.00172341
1710	0.00222376
1722	0.00250173
1734	0.0018902
1746	0.00261292
1758	0.00266851
1770	0.00283529
1782	0.00200138
1794	0.00194579
1806	0.00177901
1818	0.00216817
1830	0.0018346
1842	0.00155663
1854	0.00138985
1866	0.00138985
1878	0.00155663
1890	0.0018346
1902	0.00216817
1914	0.00205698
1926	0.00261292
1938	0.00255732
1950	0.00272411
1962	0.00283529
1974	0.00216817
1986	0.00222376
1998	0.00227935
2010	0.00227935
2022	0.00283529
2034	0.00300208
2046	0.00361361
2058	0.00328005
2070	0.00344683
2082	0.0036692
2094	0.00239054
2106	0.00161223
2118	0.00216817
2130	0.00283529
2142	0.00305767
2154	0.00405836
2166	0.00428074
2178	0.00489227
2190	0.0046699
2202	0.00450311
2214	0.00472549
2226	0.00350242
2238	0.00289089
2250	0.00294648
2262	0.0027797
2274	0.00255732
2286	0.00239054
2298	0.00244614
2310	0.00300208
2322	0.0036692
2334	0.00505905
2346	0.00455871
2358	0.00517024
2370	0.00517024
2382	0.0036692
2394	0.00350242
2406	0.00239054
2418	0.00227935
2430	0.00239054
2442	0.00283529
2454	0.00205698
2466	0.00166782
2478	0.00100069
2490	0.000778316
2502	0.00127866
2514	0.00122307
2526	0.00155663
2538	0.00200138
2550	0.00127866
2562	0.00161223
2574	0.00211257
2586	0.00216817
2598	0.00227935
2610	0.00255732
2622	0.00478108
2634	0.0055594
2646	0.00305767
2658	0.00272411
2670	0.00411396
2682	0.00455871
2694	0.00394717
2706	0.00294648
2718	0.00261292
2730	0.00339123
2742	0.00316886
2754	0.0027797
2766	0.00250173
2778	0.00433633
2790	0.00639331
2802	0.00605975
2814	0.00956217
2826	0.0156219
2838	0.0444752
2850	0.0882277
2862	0.0734953
2874	0.0584849
2886	0.0720498
2898	0.0994021
2910	0.0963444
2922	0.081334
2934	0.118415
2946	0.208589
2958	0.210201
2970	0.230159
2982	0.152439
2994	0.0599303
3006	0.0545377
3018	0.0838358
3030	0.0336344
3042	0.01123
3054	0.00589296
3066	0.00533702
3078	0.00416955
3090	0.00316886
3102	0.00355802
3114	0.00294648
3126	0.00250173
3138	0.00400277
3150	0.0036692
3162	0.00350242
3174	0.00272411
3186	0.00350242
3198	0.00300208
3210	0.00261292
3222	0.00244614
3234	0.00350242
3246	0.00194579
3258	0.00283529
3270	0.0037248
3282	0.0037248
3294	0.00322445
3306	0
3318	0.00133426
3330	0.00155663
3342	0.00411396
3354	0.00266851
3366	0.00222376
3378	0.00222376
3390	0.00311326
3402	0.00177901
3414	0.00316886
3426	0.00339123
3438	0.00305767
3450	0.00339123
3462	0.00444752
3474	0.000667128
3486	0.0055594
3498	0.00311326
3510	0.00166782
3522	0.00138985
3534	0.0046699
3546	0.000611534
3558	0.00316886
3570	0.00428074
3582	0.00572618
3594	0.00311326
3606	0.00222376
3618	0.00261292
3630	0.00500346
3642	0.00394717
3654	0.00261292
3666	0.00589296
3678	0.00605975
3690	0.00528143
3702	0.00717163
3714	0.00539262
3726	0.00628212
3738	0.0092286
3750	0.00439193
3762	0.00883945
3774	0.00433633
3786	0.00733841
3798	0.0055594
3810	0.0065045
3822	0.00972895
3834	0.00656009
3846	0.00700484
3858	0.00572618
3870	0.00667128
3882	0.00350242
3894	0.00628212
3906	0.00700484
3918	0.00572618
3930	0.00261292
3942	0.00639331
3954	0.00489227
3966	0.00967336
