Infrared Spectrum: 1-Butene, 3,3-dimethyl-
Formula: C 6 H 12
CAS: 558-37-2
State: gas
Origin: Sadtler Research Labs Under US-EPA Contract
1/CM	ABSORBANCE
450	0
462	0.0133564
474	0.0129185
486	0.00952467
498	0.00963415
510	0.0111669
522	0.0108384
534	0.00952467
546	0.00875832
558	0.0088678
570	0.00842988
582	0.00952467
594	0.0101815
606	0.00908676
618	0.0114953
630	0.0114953
642	0.0112763
654	0.0160934
666	0.0337195
678	0.0550679
690	0.0482802
702	0.0320773
714	0.0153271
726	0.0129185
738	0.0116048
750	0.00974363
762	0.00897728
774	0.00864884
786	0.00842988
798	0.00963415
810	0.010291
822	0.0122616
834	0.0146702
846	0.0169692
858	0.0206915
870	0.0341574
882	0.0506888
894	0.101925
906	0.158307
918	0.206587
930	0.129185
942	0.0476234
954	0.0350333
966	0.0345954
978	0.0431347
990	0.070395
1002	0.099188
1014	0.06514
1026	0.0376608
1038	0.0268224
1050	0.0257276
1062	0.026056
1074	0.0248517
1086	0.0197062
1098	0.0159839
1110	0.0144512
1122	0.013028
1134	0.0122616
1146	0.012809
1158	0.0145607
1170	0.0165313
1182	0.0236475
1194	0.0452148
1206	0.0805765
1218	0.078168
1230	0.039303
1242	0.025837
1254	0.0247423
1266	0.0247423
1278	0.0202536
1290	0.015546
1302	0.0137944
1314	0.013028
1326	0.0123711
1338	0.0201441
1350	0.0609798
1362	0.106742
1374	0.121084
1386	0.101159
1398	0.0535352
1410	0.0528784
1422	0.057148
1434	0.0472949
1446	0.0522215
1458	0.080905
1470	0.115938
1482	0.109698
1494	0.0718182
1506	0.0318584
1518	0.0140133
1530	0.0124806
1542	0.0131375
1554	0.0108384
1566	0.0134659
1578	0.0189399
1590	0.0239759
1602	0.0215674
1614	0.0201441
1626	0.0475139
1638	0.0769637
1650	0.0818903
1662	0.0439011
1674	0.0179546
1686	0.0153271
1698	0.0144512
1710	0.0111669
1722	0.0112763
1734	0.013028
1746	0.0111669
1758	0.0116048
1770	0.0116048
1782	0.0109479
1794	0.0111669
1806	0.0129185
1818	0.0214579
1830	0.0279171
1842	0.0241949
1854	0.0135754
1866	0.0100721
1878	0.00996259
1890	0.00985311
1902	0.0100721
1914	0.0108384
1926	0.01051
1938	0.010291
1950	0.0100721
1962	0.010291
1974	0.0108384
1986	0.0112763
1998	0.0109479
2010	0.0101815
2022	0.00996259
2034	0.00952467
2046	0.00952467
2058	0.00941519
2070	0.00996259
2082	0.0104005
2094	0.00985311
2106	0.00952467
2118	0.00941519
2130	0.00919624
2142	0.00919624
2154	0.00919624
2166	0.00930571
2178	0.00930571
2190	0.00919624
2202	0.00930571
2214	0.00930571
2226	0.00908676
2238	0.00919624
2250	0.00974363
2262	0.00974363
2274	0.0101815
2286	0.00985311
2298	0.00875832
2310	0.00744457
2322	0.00700666
2334	0.00700666
2346	0.00711613
2358	0.00711613
2370	0.00700666
2382	0.00842988
2394	0.0106195
2406	0.0104005
2418	0.00985311
2430	0.00963415
2442	0.00952467
2454	0.00985311
2466	0.00963415
2478	0.00985311
2490	0.00974363
2502	0.0100721
2514	0.01051
2526	0.01051
2538	0.0106195
2550	0.0104005
2562	0.0110574
2574	0.0116048
2586	0.0116048
2598	0.0112763
2610	0.0106195
2622	0.0107289
2634	0.0108384
2646	0.0114953
2658	0.0122616
2670	0.0123711
2682	0.013247
2694	0.0137944
2706	0.0158745
2718	0.0183925
2730	0.0187209
2742	0.0174072
2754	0.0159839
2766	0.015546
2778	0.0156555
2790	0.018502
2802	0.0218958
2814	0.0249612
2826	0.0284645
2838	0.0341574
2850	0.0572575
2862	0.137068
2874	0.242168
2886	0.260669
2898	0.257495
2910	0.265924
2922	0.284426
2934	0.304461
2946	0.503056
2958	0.849557
2970	1.06085
2982	0.701213
2994	0.237241
3006	0.11988
3018	0.0828756
3030	0.052112
3042	0.0343764
3054	0.0350333
3066	0.0484992
3078	0.0941519
3090	0.130937
3102	0.0905391
3114	0.041821
3126	0.0206915
3138	0.0192683
3150	0.018502
3162	0.0188304
3174	0.0200347
3186	0.0205821
3198	0.0202536
3210	0.0193778
3222	0.0194873
3234	0.0193778
3246	0.0181735
3258	0.0165313
3270	0.0144512
3282	0.0123711
3294	0.0117143
3306	0.0118237
3318	0.0129185
3330	0.012809
3342	0.0131375
3354	0.0136849
3366	0.0133564
3378	0.0123711
3390	0.0114953
3402	0.0107289
3414	0.0106195
3426	0.00941519
3438	0.00985311
3450	0.00963415
3462	0.00963415
3474	0.00996259
3486	0.00974363
3498	0.00974363
3510	0.00930571
3522	0.00821093
3534	0.00897728
3546	0.00799197
3558	0.00821093
3570	0.00821093
3582	0.00799197
3594	0.00744457
3606	0.00864884
3618	0.00853936
3630	0.00842988
3642	0.00810145
3654	0.00821093
3666	0.00985311
3678	0.00744457
3690	0.00788249
3702	0.00777301
3714	0.00788249
3726	0.00810145
3738	0.00711613
3750	0.00897728
3762	0.00810145
3774	0.00853936
3786	0.0088678
3798	0.00788249
3810	0.00952467
3822	0.00930571
3834	0.00842988
3846	0.00842988
3858	0.00875832
3870	0.00864884
3882	0.00941519
3894	0.00897728
3906	0.00842988
3918	0.00810145
3930	0.00897728
3942	0.00799197
3954	0.00722561
3966	0.00744457
