Infrared Spectrum: 1-BUTENE, 3,3-DIMETHYL-
Formula: C6 H12
CAS: 558-37-2
State: SOLUTION (10% IN CCl4 FOR 3800-1300, 10% IN CS2 FOR 1300-650, AND 10% IN CCl4 FOR 650-250 CM^-^1) VERSUS SOLVENT
Class: COBLENTZ III
Instrument: PERKIN-ELMER 521 (GRATING)
Instrument parameters: FILTERS AT 3150, 2500, 2000, 1150, 700, 410; GRATING CHANGES AT 2000, 630 CM^-^1
Sampling: TRANSMISSION
Path length: 0.011, 0.011, AND 0.010 CM (CsBr CELL)
Resolution: 4
Origin: DOW CORNING CORP.
1/CM	TRANSMITTANCE
250.639	0.979
259.846	0.954
269.053	0.949
278.26	0.943
287.468	0.931
296.675	0.929
305.882	0.922
315.089	0.927
324.296	0.927
333.503	0.929
342.711	0.928
351.918	0.924
361.125	0.925
370.332	0.927
379.539	0.91
388.746	0.933
397.954	0.929
407.161	0.935
416.368	0.942
425.575	0.947
434.782	0.953
443.989	0.947
453.196	0.932
462.404	0.925
471.611	0.92
480.818	0.918
490.025	0.92
499.232	0.916
508.439	0.911
517.647	0.905
526.854	0.91
536.061	0.914
545.268	0.914
554.475	0.918
563.682	0.921
572.89	0.922
582.097	0.924
591.304	0.925
600.511	0.925
609.718	0.922
618.925	0.916
628.132	0.888
637.34	0.862
646.547	0.83
655.754	0.786
664.961	0.697
674.168	0.5221
683.375	0.321
692.583	0.715
701.79	0.8
710.997	0.822
720.204	0.841
729.411	0.847
738.618	0.855
747.826	0.859
757.033	0.858
766.24	0.855
775.447	0.85
784.654	0.843
793.861	0.841
803.068	0.841
812.276	0.84
821.483	0.845
830.69	0.855
839.897	0.863
849.104	0.858
858.311	0.8
867.519	0.751
876.726	0.57
885.933	0.577
895.14	0.378
904.347	0.009
913.554	0.1298
922.762	0.4968
931.969	0.6339
941.176	0.708
950.383	0.723
959.59	0.726
968.797	0.701
978.004	0.64
987.212	0.401
996.419	0.129
1005.63	0.5499
1014.83	0.609
1024.04	0.5769
1033.25	0.726
1042.45	0.744
1051.66	0.711
1060.87	0.599
1070.08	0.707
1079.28	0.774
1088.49	0.788
1097.7	0.799
1106.9	0.804
1116.11	0.806
1125.32	0.806
1134.53	0.803
1143.73	0.803
1152.94	0.793
1162.15	0.777
1171.35	0.751
1180.56	0.702
1189.77	0.6071
1198.98	0.3601
1208.18	0.4629
1217.39	0.665
1226.6	0.731
1235.8	0.741
1245.01	0.737
1254.22	0.678
1263.43	0.607
1272.63	0.757
1281.84	0.8
1291.05	0.836
1300.26	0.848
1309.46	0.85
1318.67	0.845
1327.88	0.833
1337.08	0.788
1346.29	0.679
1355.5	0.1161
1364.71	0.5808
1373.91	0.6012
1383.12	0.5629
1392.33	0.735
1401.53	0.668
1410.74	0.3971
1419.95	0.65
1429.16	0.697
1438.36	0.635
1447.57	0.5
1456.78	0.287
1465.98	0.427
1475.19	0.2838
1484.4	0.7329
1493.61	0.819
1502.81	0.855
1512.02	0.876
1521.23	0.896
1530.43	0.911
1539.64	0.91
1548.85	0.905
1558.06	0.891
1567.26	0.872
1576.47	0.829
1585.68	0.778
1594.88	0.836
1604.09	0.837
1613.3	0.807
1622.51	0.757
1631.71	0.385
1640.92	0.5537
1650.13	0.796
1659.33	0.832
1668.54	0.833
1677.75	0.841
1686.96	0.859
1696.16	0.862
1705.37	0.861
1714.58	0.863
1723.78	0.863
1732.99	0.862
1742.2	0.863
1751.41	0.856
1760.61	0.865
1769.82	0.87
1779.03	0.87
1788.23	0.867
1797.44	0.858
1806.65	0.836
1815.86	0.777
1825.06	0.762
1834.27	0.837
1843.48	0.87
1852.68	0.877
1861.89	0.873
1871.1	0.873
1880.31	0.873
1889.51	0.877
1898.72	0.872
1907.93	0.872
1917.13	0.873
1926.34	0.876
1935.55	0.877
1944.76	0.874
1953.96	0.874
1963.17	0.878
1972.38	0.87
1981.58	0.863
1990.79	0.872
2000	0.874
2009.21	0.883
2018.41	0.883
2027.62	0.8788
2036.83	0.883
2046.03	0.884
2055.24	0.8825
2064.45	0.8784
2073.66	0.873
2082.86	0.8757
2092.07	0.8736
2101.28	0.8721
2110.48	0.873
2119.69	0.874
2128.9	0.873
2138.11	0.876
2147.31	0.876
2156.52	0.8762
2165.73	0.878
2174.94	0.876
2184.14	0.876
2193.35	0.873
2202.56	0.8779
2211.76	0.878
2220.97	0.877
2230.18	0.8735
2239.39	0.874
2248.59	0.876
2257.8	0.874
2267.01	0.874
2276.21	0.8738
2285.42	0.8663
2294.63	0.8706
2303.84	0.8757
2313.04	0.878
2322.25	0.8782
2331.46	0.88
2340.66	0.88
2349.87	0.873
2359.08	0.874
2368.29	0.8724
2377.49	0.87
2386.7	0.873
2395.91	0.8698
2405.11	0.8698
2414.32	0.873
2423.53	0.872
2432.74	0.873
2441.94	0.8759
2451.15	0.8751
2460.36	0.87
2469.56	0.8709
2478.77	0.8731
2487.98	0.8694
2497.19	0.869
2506.39	0.8653
2515.6	0.863
2524.81	0.8686
2534.01	0.866
2543.22	0.8687
2552.43	0.865
2561.64	0.861
2570.84	0.864
2580.05	0.865
2589.26	0.865
2598.46	0.8632
2607.67	0.8637
2616.88	0.861
2626.09	0.859
2635.29	0.8574
2644.5	0.854
2653.71	0.8516
2662.91	0.8509
2672.12	0.8514
2681.33	0.852
2690.54	0.849
2699.74	0.8304
2708.95	0.81
2718.16	0.8446
2727.36	0.843
2736.57	0.841
2745.78	0.847
2754.99	0.8485
2764.19	0.843
2773.4	0.839
2782.61	0.8333
2791.81	0.7971
2801.02	0.778
2810.23	0.7759
2819.44	0.748
2828.64	0.7373
2837.85	0.6996
2847.06	0.6066
2856.26	0.3394
2865.47	0.114
2874.68	0.2019
2883.89	0.2512
2893.09	0.2366
2902.3	0.1302
2911.51	0.1727
2920.71	0.1596
2929.92	0.0886
2939.13	0.0615
2948.34	0.006
2957.54	0
2966.75	0.0074
2975.96	0.051
2985.16	0.2513
2994.37	0.356
3003.58	0.4178
3012.79	0.5924
3021.99	0.7041
3031.2	0.7485
3040.41	0.764
3049.62	0.7502
3058.82	0.7036
3068.03	0.6133
3077.24	0.5281
3086.44	0.444
3095.65	0.6327
3104.86	0.7755
3114.07	0.8276
3123.27	0.8437
3132.48	0.8529
3141.69	0.854
3150.89	0.8529
3160.1	0.8469
3169.31	0.843
3178.52	0.8338
3187.72	0.8367
3196.93	0.845
3206.14	0.847
3215.34	0.8437
3224.55	0.8439
3233.76	0.8474
3242.97	0.85
3252.17	0.8529
3261.38	0.859
3270.59	0.8616
3279.79	0.8702
3289	0.873
3298.21	0.8728
3307.42	0.87
3316.62	0.869
3325.83	0.869
3335.04	0.869
3344.24	0.869
3353.45	0.8656
3362.66	0.866
3371.87	0.8725
3381.07	0.876
3390.28	0.877
3399.49	0.88
3408.69	0.881
3417.9	0.883
3427.11	0.881
3436.32	0.878
3445.52	0.878
3454.73	0.8804
3463.94	0.881
3473.14	0.88
3482.35	0.878
3491.56	0.881
3500.77	0.88
3509.97	0.88
3519.18	0.881
3528.39	0.8837
3537.59	0.8854
3546.8	0.888
3556.01	0.889
3565.22	0.889
3574.42	0.892
3583.63	0.8912
3592.84	0.887
3602.04	0.887
3611.25	0.8899
3620.46	0.8881
3629.67	0.8884
3638.87	0.885
3648.08	0.885
3657.29	0.887
3666.49	0.8906
3675.7	0.887
3684.91	0.8879
3694.12	0.888
3703.32	0.888
3712.53	0.887
3721.74	0.885
3730.94	0.8916
3740.15	0.891
3749.36	0.8857
3758.57	0.884
3767.77	0.884
3776.98	0.883
3786.19	0.883
3795.39	0.883
