Infrared Spectrum: Propane, 2-chloro-2-methyl-
Formula: C 4 H 9 Cl
CAS: 507-20-0
State: gas
Origin: Sadtler Research Labs Under US-EPA Contract
1/CM	ABSORBANCE
450	0.104993
462	0.0553676
474	0.0637069
486	0.064117
498	0.0131242
510	0.0827096
522	0.0261116
534	0.0375953
546	0.0965173
558	0.15749
570	0.307187
582	0.403568
594	0.288321
606	0.110735
618	0.0758741
630	0.0568714
642	0.0538637
654	0.0527701
666	0.0524966
678	0.050446
690	0.0457979
702	0.0489422
714	0.050446
726	0.0530435
738	0.0483953
750	0.0538637
762	0.0500359
774	0.0526334
786	0.0682183
798	0.132062
810	0.192761
822	0.171981
834	0.0962438
846	0.0508561
858	0.0456611
870	0.0490789
882	0.053727
894	0.0649373
906	0.0758741
918	0.0973375
930	0.0709525
942	0.054684
954	0.0437472
966	0.04197
978	0.0473017
990	0.0437472
1002	0.0455244
1014	0.0493523
1026	0.0437472
1038	0.0464814
1050	0.0460713
1062	0.045251
1074	0.045251
1086	0.0466181
1098	0.053727
1110	0.0736867
1122	0.136437
1134	0.298028
1146	0.511022
1158	0.618749
1170	0.562288
1182	0.423801
1194	0.229126
1206	0.205202
1218	0.227075
1230	0.259476
1242	0.18948
1254	0.0781981
1266	0.0527701
1278	0.0498992
1290	0.0459346
1302	0.0498992
1314	0.0497624
1326	0.0516764
1338	0.0574182
1350	0.116067
1362	0.322909
1374	0.674937
1386	0.392768
1398	0.155166
1410	0.0746437
1422	0.0616562
1434	0.0848969
1446	0.166513
1458	0.212584
1470	0.233227
1482	0.188797
1494	0.113059
1506	0.0441573
1518	0.0317167
1530	0.028299
1542	0.0241977
1554	0.0259749
1566	0.0258382
1578	0.0261116
1590	0.0266585
1602	0.0269319
1614	0.0269319
1626	0.0246078
1638	0.0258382
1650	0.0247445
1662	0.0292559
1674	0.0262483
1686	0.0233774
1698	0.0222837
1710	0.0266585
1722	0.0259749
1734	0.024061
1746	0.0278888
1758	0.0285724
1770	0.0259749
1782	0.026385
1794	0.0248812
1806	0.0270686
1818	0.0258382
1830	0.022147
1842	0.0218736
1854	0.0232407
1866	0.0213268
1878	0.0206432
1890	0.0195495
1902	0.0196862
1914	0.0181824
1926	0.018866
1938	0.0185926
1950	0.0183191
1962	0.018866
1974	0.0187293
1986	0.0170887
1998	0.0155849
2010	0.0144913
2022	0.0129875
2034	0.0124406
2046	0.0120305
2058	0.0124406
2070	0.0132609
2082	0.0142178
2094	0.0138077
2106	0.0133976
2118	0.0142178
2130	0.0142178
2142	0.0139444
2154	0.0147647
2166	0.0164052
2178	0.0183191
2190	0.0181824
2202	0.014628
2214	0.0114836
2226	0.0106634
2238	0.0105267
2250	0.01039
2262	0.01039
2274	0.0109368
2286	0.012714
2298	0.0140811
2310	0.012714
2322	0.0102533
2334	0.00861273
2346	0.00765576
2358	0.00710892
2370	0.00300762
2382	0.00724563
2394	0.01039
2406	0.0116204
2418	0.0095697
2430	0.00738234
2442	0.00574182
2454	0.00533169
2466	0.00464814
2478	0.00369117
2490	0.00341775
2502	0.00341775
2514	0.00191394
2526	0.00177723
2538	0.00177723
2550	0.00054684
2562	0
2574	0.00082026
2586	0.00164052
2598	0.00314433
2610	0.00451143
2622	0.00669879
2634	0.00642537
2646	0.00423801
2658	0.00314433
2670	0.00574182
2682	0.00697221
2694	0.0054684
2706	0.00601524
2718	0.01039
2730	0.0149014
2742	0.0166786
2754	0.0138077
2766	0.00902286
2778	0.0112102
2790	0.0132609
2802	0.0172255
2814	0.023104
2826	0.0300762
2838	0.0362282
2850	0.0587853
2862	0.118254
2874	0.188933
2886	0.228442
2898	0.301719
2910	0.355583
2922	0.440753
2934	0.486824
2946	0.504597
2958	0.549711
2970	0.795379
2982	1.20742
2994	1.3671
3006	0.519635
3018	0.142725
3030	0.0177723
3042	0.00765576
3054	0.00738234
3066	0.00915957
3078	0.00984312
3090	0.0108001
3102	0.00970641
3114	0.00792918
3126	0.00697221
3138	0.00697221
3150	0.00669879
3162	0.00765576
3174	0.0106634
3186	0.0140811
3198	0.0177723
3210	0.0195495
3222	0.0203698
3234	0.0200964
3246	0.0226939
3258	0.023104
3270	0.0216002
3282	0.0177723
3294	0.013671
3306	0.0108001
3318	0.00587853
3330	0.00656208
3342	0.00560511
3354	0.0027342
3366	0.0041013
3378	0.00587853
3390	0.00697221
3402	0.00710892
3414	0.00615195
3426	0.00232407
3438	0.00259749
3450	0.00054684
3462	0.00054684
3474	0.0013671
3486	0.00068355
3498	0.00191394
3510	0.00287091
3522	0.0027342
3534	0.00177723
3546	0.00300762
3558	0.00437472
3570	0.00574182
3582	0.00300762
3594	0.00369117
3606	0.00232407
3618	0.00724563
3630	0.00929628
3642	0.00984312
3654	0.00847602
3666	0.00943299
3678	0.00656208
3690	0.00232407
3702	0.00287091
3714	0.00328104
3726	0.00601524
3738	0.00492156
3750	0.00382788
3762	0.0027342
3774	0.00013671
3786	0.00587853
3798	0.00697221
3810	0.00382788
3822	0.00300762
3834	0.00382788
3846	0.00382788
3858	0.00369117
3870	0.00246078
3882	0.00314433
3894	0.00082026
3906	0.0041013
3918	0.01039
3930	0.00423801
3942	0.00013671
3954	0.00123039
3966	0.0041013
