Infrared Spectrum: PROPANE, 2-CHLORO-2-METHYL-
Formula: C4 H9 Cl
CAS: 507-20-0
State: LIQUID (NEAT)
Class: COBLENTZ III
Instrument: PERKIN-ELMER 521 (GRATING)
Instrument parameters: FILTERS AT 3150, 2500, 2000, 1150, 700, 410; GRATING CHANGES AT 2000, 630 CM^-^1
Sampling: TRANSMISSION
Path length: 0.003 CM
Resolution: 4
Origin: STANDARD OIL OF OHIO
1/CM	TRANSMITTANCE
337.734	0.723
347.186	0.72
356.639	0.718
366.091	0.718
375.544	0.713
384.996	0.711
394.448	0.71
403.901	0.705
413.353	0.703
422.805	0.684
432.258	0.659
441.71	0.5183
451.163	0.3061
460.615	0.169
470.067	0.1
479.52	0.093
488.972	0.1
498.424	0.101
507.877	0.111
517.329	0.132
526.782	0.159
536.234	0.179
545.686	0.184
555.139	0.123
564.591	0.042
574.043	0.052
583.496	0.188
592.948	0.3618
602.401	0.4549
611.853	0.55
621.305	0.616
630.758	0.666
640.21	0.722
649.663	0.779
659.115	0.805
668.567	0.828
678.02	0.842
687.472	0.866
696.924	0.881
706.377	0.889
715.829	0.901
725.282	0.903
734.734	0.9
744.186	0.903
753.639	0.923
763.091	0.922
772.543	0.915
781.996	0.894
791.448	0.8271
800.901	0.3835
810.353	0.233
819.805	0.5638
829.258	0.83
838.71	0.905
848.162	0.933
857.615	0.942
867.067	0.942
876.52	0.935
885.972	0.933
895.424	0.933
904.877	0.905
914.329	0.877
923.782	0.916
933.234	0.938
942.686	0.94
952.139	0.942
961.591	0.942
971.043	0.94
980.496	0.94
989.948	0.94
999.401	0.938
1008.85	0.928
1018.31	0.923
1027.76	0.92
1037.21	0.92
1046.66	0.92
1056.11	0.922
1065.57	0.915
1075.02	0.913
1084.47	0.903
1093.92	0.871
1103.38	0.7941
1112.83	0.6691
1122.28	0.376
1131.73	0.1712
1141.19	0.086
1150.64	0.05
1160.09	0.054
1169.54	0.2108
1179	0.432
1188.45	0.508
1197.9	0.527
1207.35	0.532
1216.81	0.549
1226.26	0.4232
1235.71	0.1301
1245.16	0.5609
1254.61	0.8199
1264.07	0.859
1273.52	0.876
1282.97	0.883
1292.42	0.886
1301.88	0.888
1311.33	0.881
1320.78	0.866
1330.23	0.823
1339.69	0.789
1349.14	0.7051
1358.59	0.3224
1368.04	0.037
1377.5	0.3301
1386.95	0.528
1396.4	0.5059
1405.85	0.701
1415.31	0.718
1424.76	0.6621
1434.21	0.493
1443.66	0.3232
1453.11	0.123
1462.57	0.2439
1472.02	0.183
1481.47	0.5299
1490.92	0.725
1500.38	0.82
1509.83	0.867
1519.28	0.898
1528.73	0.908
1538.19	0.925
1547.64	0.928
1557.09	0.933
1566.54	0.933
1576	0.933
1585.45	0.932
1594.9	0.928
1604.35	0.927
1613.81	0.928
1623.26	0.928
1632.71	0.927
1642.16	0.922
1651.61	0.915
1661.07	0.911
1670.52	0.903
1679.97	0.9
1689.42	0.898
1698.88	0.894
1708.33	0.883
1717.78	0.867
1727.23	0.852
1736.69	0.867
1746.14	0.903
1755.59	0.915
1765.04	0.916
1774.5	0.928
1783.95	0.93
1793.4	0.923
1802.85	0.913
1812.31	0.927
1821.76	0.937
1831.21	0.937
1840.66	0.93
1850.11	0.925
1859.57	0.94
1869.02	0.945
1878.47	0.945
1887.92	0.949
1897.38	0.95
1906.83	0.952
1916.28	0.952
1925.73	0.952
1935.19	0.952
1944.64	0.945
1954.09	0.938
1963.54	0.94
1973	0.95
1982.45	0.952
1991.9	0.952
2001.35	0.957
2010.81	0.957
2020.26	0.957
2029.71	0.957
2039.16	0.957
2048.61	0.957
2058.07	0.957
2067.52	0.957
2076.97	0.959
2086.42	0.959
2095.88	0.957
2105.33	0.955
2114.78	0.955
2124.23	0.952
2133.69	0.95
2143.14	0.9452
2152.59	0.9337
2162.04	0.9251
2171.5	0.8949
2180.95	0.9137
2190.4	0.9518
2199.85	0.957
2209.31	0.959
2218.76	0.9571
2228.21	0.9561
2237.66	0.954
2247.11	0.952
2256.57	0.9502
2266.02	0.9469
2275.47	0.9334
2284.92	0.9097
2294.38	0.888
2303.83	0.9358
2313.28	0.95
2322.73	0.9552
2332.19	0.9552
2341.64	0.954
2351.09	0.9491
2360.54	0.9412
2370	0.9334
2379.45	0.926
2388.9	0.9086
2398.35	0.9082
2407.81	0.9314
2417.26	0.9428
2426.71	0.9487
2436.16	0.949
2445.61	0.949
2455.07	0.9483
2464.52	0.9499
2473.97	0.949
2483.42	0.949
2492.88	0.949
2502.33	0.9499
2511.78	0.95
2521.23	0.95
2530.69	0.949
2540.14	0.949
2549.59	0.945
2559.04	0.944
2568.5	0.9393
2577.95	0.9333
2587.4	0.9257
2596.85	0.9117
2606.31	0.9153
2615.76	0.9134
2625.21	0.9057
2634.66	0.9187
2644.11	0.9277
2653.57	0.9187
2663.02	0.9124
2672.47	0.9102
2681.92	0.901
2691.38	0.9096
2700.83	0.9094
2710.28	0.8946
2719.73	0.8315
2729.19	0.8803
2738.64	0.905
2748.09	0.906
2757.54	0.91
2767	0.9019
2776.45	0.8748
2785.9	0.869
2795.35	0.8543
2804.81	0.814
2814.26	0.785
2823.71	0.7712
2833.16	0.7378
2842.61	0.6686
2852.07	0.4922
2861.52	0.2663
2870.97	0.3469
2880.42	0.2845
2889.88	0.2041
2899.33	0.1697
2908.78	0.1842
2918.23	0.0739
2927.69	0.0781
2937.14	0.1093
2946.59	0.1036
2956.04	0.0573
2965.5	0.008
2974.95	0.01
2984.4	0.0255
2993.85	0.1493
3003.3	0.5023
3012.76	0.6877
3022.21	0.8037
3031.66	0.8497
3041.11	0.8774
3050.57	0.8979
3060.02	0.9064
3069.47	0.911
3078.92	0.9184
3088.38	0.922
3097.83	0.9234
3107.28	0.925
3116.73	0.927
3126.19	0.928
3135.64	0.9266
3145.09	0.916
3154.54	0.9127
3164	0.9066
3173.45	0.8997
3182.9	0.884
3192.35	0.8718
3201.8	0.871
3211.26	0.871
3220.71	0.8677
3230.16	0.864
3239.61	0.8614
3249.07	0.857
3258.52	0.8544
3267.97	0.8556
3277.42	0.8791
3286.88	0.9039
3296.33	0.9173
3305.78	0.92
3315.23	0.918
3324.69	0.9093
3334.14	0.903
3343.59	0.9084
3353.04	0.911
3362.5	0.9026
3371.95	0.886
3381.4	0.8812
3390.85	0.8883
3400.3	0.9114
3409.76	0.922
3419.21	0.923
3428.66	0.923
3438.11	0.923
3447.57	0.923
3457.02	0.923
3466.47	0.923
3475.92	0.922
3485.38	0.922
3494.83	0.922
3504.28	0.92
3513.73	0.918
3523.19	0.915
3532.64	0.9109
3542.09	0.908
3551.54	0.9029
3561	0.8989
3570.45	0.8839
3579.9	0.8801
3589.35	0.8931
3598.8	0.9056
3608.26	0.9162
3617.71	0.9241
3627.16	0.9281
3636.61	0.93
3646.07	0.928
3655.52	0.928
3664.97	0.928
3674.42	0.928
3683.88	0.93
3693.33	0.932
3702.78	0.933
3712.23	0.933
3721.69	0.933
3731.14	0.932
3740.59	0.93
3750.04	0.928
3759.5	0.927
3768.95	0.923
3778.4	0.922
3787.85	0.9225
3797.3	0.923
3806.76	0.9225
3816.21	0.918
3825.66	0.916
3835.11	0.916
3844.57	0.916
3854.02	0.916
3863.47	0.915
3872.92	0.9061
3882.38	0.8981
3891.83	0.894
