Infrared Spectrum: ETHANOL, 2-METHYLTHIO
Formula: C3 H8 O S
CAS: 5271-38-5
Class: COBLENTZ
Instrument: Not specified, most likely a prism, grating, or hybrid spectrometer.
Sampling: TRANSMISSION
Path length: SMEAR
Resolution: 4
Origin: TENNESSEE EASTMAN COMPANY, RESEARCH LABORATORIES
MICROMETERS	TRANSMITTANCE
2.017	0.944
2.05687	0.943
2.09673	0.939
2.1366	0.939
2.17646	0.934
2.21633	0.934
2.25619	0.931
2.29606	0.923
2.33592	0.913
2.37579	0.913
2.41566	0.916
2.45552	0.916
2.49539	0.914
2.53525	0.914
2.57512	0.914
2.61498	0.916
2.65485	0.918
2.69471	0.923
2.73458	0.914
2.77445	0.878
2.81431	0.809
2.85418	0.687
2.89404	0.529
2.93391	0.393
2.97377	0.328
3.01364	0.307
3.05351	0.308
3.09337	0.345
3.13324	0.414
3.1731	0.5
3.21297	0.612
3.25283	0.676
3.2927	0.746
3.33256	0.767
3.37243	0.724
3.4123	0.509
3.45216	0.41
3.49203	0.554
3.53189	0.577
3.57176	0.677
3.61162	0.769
3.65149	0.801
3.69135	0.818
3.73122	0.819
3.77109	0.836
3.81095	0.849
3.85082	0.849
3.89068	0.853
3.93055	0.858
3.97041	0.863
4.01028	0.869
4.05014	0.874
4.09001	0.878
4.12988	0.881
4.16974	0.881
4.20961	0.883
4.24947	0.891
4.28934	0.941
4.3292	0.941
4.36907	0.926
4.40894	0.893
4.4488	0.893
4.48867	0.894
4.52853	0.893
4.5684	0.894
4.60826	0.894
4.64813	0.893
4.68799	0.893
4.72786	0.891
4.76773	0.893
4.80759	0.891
4.84746	0.893
4.88732	0.889
4.92719	0.878
4.96705	0.881
5.00692	0.884
5.04678	0.894
5.08665	0.894
5.12652	0.893
5.16638	0.894
5.20625	0.896
5.24611	0.894
5.28598	0.893
5.32584	0.893
5.36571	0.901
5.40557	0.894
5.44544	0.901
5.48531	0.901
5.52517	0.894
5.56504	0.896
5.6049	0.896
5.64477	0.896
5.68463	0.893
5.7245	0.894
5.76437	0.884
5.80423	0.861
5.8441	0.871
5.88396	0.864
5.92383	0.868
5.96369	0.863
6.00356	0.843
6.04342	0.829
6.08329	0.824
6.12316	0.799
6.16302	0.803
6.20289	0.821
6.24275	0.831
6.28262	0.841
6.32248	0.849
6.36235	0.851
6.40221	0.854
6.44208	0.843
6.48195	0.854
6.52181	0.844
6.56168	0.846
6.60154	0.833
6.64141	0.826
6.68127	0.813
6.72114	0.784
6.761	0.752
6.80087	0.671
6.84074	0.669
6.8806	0.659
6.92047	0.587
6.96033	0.507
7.0002	0.485
7.04006	0.505
7.07993	0.549
7.1198	0.554
7.15966	0.597
7.19953	0.606
7.23939	0.616
7.27926	0.637
7.31912	0.652
7.35899	0.682
7.39885	0.699
7.43872	0.707
7.47859	0.706
7.51845	0.699
7.55832	0.679
7.59818	0.672
7.63805	0.699
7.67791	0.707
7.71778	0.686
7.75764	0.632
7.79751	0.614
7.83738	0.662
7.87724	0.716
7.91711	0.759
7.95697	0.782
7.99684	0.787
8.0367	0.791
8.07657	0.776
8.11643	0.744
8.1563	0.722
8.19617	0.737
8.23603	0.759
8.2759	0.762
8.31576	0.764
8.35563	0.762
8.39549	0.754
8.43536	0.737
8.47523	0.709
8.51509	0.679
8.55496	0.674
8.59482	0.674
8.63469	0.684
8.67455	0.701
8.71442	0.729
8.75428	0.744
8.79415	0.757
8.83402	0.772
8.87388	0.774
8.91375	0.776
8.95361	0.776
8.99348	0.774
9.03334	0.772
9.07321	0.769
9.11307	0.751
9.15294	0.722
9.19281	0.659
9.23267	0.574
9.27254	0.465
9.3124	0.388
9.35227	0.337
9.39213	0.318
9.432	0.318
9.47186	0.318
9.51173	0.308
9.5516	0.288
9.59146	0.28
9.63133	0.297
9.67119	0.333
9.71106	0.368
9.75092	0.4
9.79079	0.415
9.83066	0.41
9.87052	0.402
9.91039	0.409
9.95025	0.462
9.99012	0.522
10.03	0.595
10.0698	0.647
10.1097	0.687
10.1496	0.719
10.1894	0.726
10.2293	0.729
10.2692	0.731
10.309	0.731
10.3489	0.711
10.3888	0.686
10.4286	0.667
10.4685	0.667
10.5084	0.681
10.5482	0.681
10.5881	0.676
10.628	0.661
10.6678	0.644
10.7077	0.647
10.7476	0.676
10.7874	0.706
10.8273	0.739
10.8672	0.771
10.907	0.786
10.9469	0.801
10.9868	0.806
11.0266	0.809
11.0665	0.813
11.1064	0.814
11.1462	0.818
11.1861	0.818
11.226	0.819
11.2658	0.819
11.3057	0.819
11.3455	0.819
11.3854	0.819
11.4253	0.819
11.4651	0.819
11.505	0.819
11.5449	0.819
11.5847	0.819
11.6246	0.818
11.6645	0.818
11.7043	0.818
11.7442	0.816
11.7841	0.813
11.8239	0.806
11.8638	0.801
11.9037	0.796
11.9435	0.792
11.9834	0.791
12.0233	0.791
12.0631	0.789
12.103	0.782
12.1429	0.774
12.1827	0.762
12.2226	0.752
12.2625	0.747
12.3023	0.749
12.3422	0.756
12.3821	0.762
12.4219	0.767
12.4618	0.767
12.5016	0.767
12.5415	0.766
12.5814	0.761
12.6212	0.761
12.6611	0.751
12.701	0.742
12.7408	0.734
12.7807	0.721
12.8206	0.709
12.8604	0.696
12.9003	0.686
12.9402	0.682
12.98	0.682
13.0199	0.682
13.0598	0.686
13.0996	0.691
13.1395	0.691
13.1794	0.691
13.2192	0.691
13.2591	0.691
13.299	0.691
13.3388	0.691
13.3787	0.691
13.4186	0.691
13.4584	0.691
13.4983	0.687
13.5382	0.686
13.578	0.684
13.6179	0.681
13.6578	0.676
13.6976	0.669
13.7375	0.662
13.7773	0.652
13.8172	0.651
13.8571	0.649
13.8969	0.646
13.9368	0.644
13.9767	0.642
14.0165	0.642
14.0564	0.634
14.0963	0.627
14.1361	0.621
14.176	0.611
14.2159	0.601
14.2557	0.59
14.2956	0.582
14.3355	0.579
14.3753	0.579
14.4152	0.58
14.4551	0.58
14.4949	0.58
14.5348	0.582
14.5747	0.582
14.6145	0.582
14.6544	0.582
14.6943	0.579
14.7341	0.577
14.774	0.575
14.8139	0.57
14.8537	0.567
14.8936	0.56
14.9335	0.559
14.9733	0.559
15.0132	0.557
15.053	0.557
15.0929	0.549
15.1328	0.53
15.1726	0.517
15.2125	0.515
15.2524	0.515
15.2922	0.515
15.3321	0.515
15.372	0.515
15.4118	0.517
15.4517	0.517
15.4916	0.517
15.5314	0.517
15.5713	0.519
15.6112	0.519
15.651	0.52
15.6909	0.52
15.7308	0.522
15.7706	0.522
15.8105	0.522
15.8504	0.524
15.8902	0.525
15.9301	0.53
15.97	0.534
