Infrared Spectrum: Butane, 1-iodo-
Formula: C 4 H 9 I
CAS: 542-69-8
State: gas
Origin: Sadtler Research Labs Under US-EPA Contract
1/CM	ABSORBANCE
450	0.0151597
462	0.0146211
474	0.0157754
486	0.0289343
498	0.0299347
510	0.0345519
522	0.0174683
534	0.0123894
546	0.00800311
558	0.00161601
570	0.0188535
582	0.031166
594	0.0781842
606	0.0399386
618	0.00915741
630	0.00554062
642	0.00223164
654	0.00754139
666	0.0050789
678	0.00746444
690	0.0101578
702	0.0111582
714	0.0202386
726	0.0574069
738	0.0656409
750	0.02955
762	0.0230089
774	0.0285496
786	0.0211621
798	0.0151597
810	0.00861874
822	0.00615624
834	0.0107734
846	0.0106195
858	0.0237015
870	0.0323972
882	0.0247019
894	0.0221625
906	0.0176222
918	0.00992694
930	0.00700272
942	0.00661796
954	0.00600233
966	0.011466
978	0.011389
990	0.0120816
1002	0.013159
1014	0.00892655
1026	0.00777225
1038	0.00915741
1050	0.0140824
1062	0.0125433
1074	0.00877264
1086	0.0215468
1098	0.0247789
1110	0.0123125
1122	0.011466
1134	0.0129281
1146	0.0189304
1158	0.0404003
1170	0.143517
1182	0.344211
1194	0.347981
1206	0.140516
1218	0.0457101
1230	0.0521741
1242	0.153906
1254	0.20885
1266	0.099885
1278	0.0594077
1290	0.0707198
1302	0.0495577
1314	0.0257793
1326	0.0186226
1338	0.0322433
1350	0.044171
1362	0.0395538
1374	0.0401695
1386	0.054098
1398	0.0424781
1410	0.02778
1422	0.0483265
1434	0.0841866
1446	0.0999619
1458	0.129512
1470	0.110658
1482	0.0668722
1494	0.0329359
1506	0.0237785
1518	0.0148519
1530	0.00938827
1542	0.0208543
1554	0.00854178
1566	0.00669491
1578	0.0120047
1590	0.00461718
1602	0.00515585
1614	0.00353984
1626	0.00592538
1638	0.0100039
1650	0.00623319
1662	0.00415546
1674	0.00615624
1686	0.0138515
1698	0.0111582
1710	0.00415546
1722	0.00438632
1734	0.0100039
1746	0.00415546
1758	0.00461718
1770	0.00500195
1782	0.00346289
1794	0.00600233
1806	0.00107734
1818	0.00123125
1830	0.00346289
1842	0.000923436
1854	0.00107734
1866	0.0011543
1878	0.000923436
1890	0.00230859
1902	0.00215468
1914	0.00169297
1926	0.00207773
1938	0.0013082
1950	0.0011543
1962	0.00169297
1974	0.000692577
1986	0.000692577
1998	0.000692577
2010	0.000692577
2022	0.00107734
2034	0.00215468
2046	0.00269336
2058	0.00269336
2070	0.00215468
2082	0.00161601
2094	0.00161601
2106	0.000615624
2118	0.00100039
2130	0.000615624
2142	0.00076953
2154	0.00161601
2166	0.00169297
2178	0.0011543
2190	0.00169297
2202	0.00230859
2214	0.00146211
2226	0.00169297
2238	0.0013082
2250	0.00184687
2262	0.00100039
2274	0.00146211
2286	0.00100039
2298	0.000461718
2310	0.00107734
2322	0.00238554
2334	0.00723358
2346	0.0110812
2358	0.00908045
2370	0.0230859
2382	0.00777225
2394	0.0011543
2406	0.00123125
2418	0.0013082
2430	0.00138515
2442	0.00192383
2454	0.00138515
2466	0.00138515
2478	0.00138515
2490	0.00146211
2502	0.00146211
2514	0.00153906
2526	0.00138515
2538	0.00153906
2550	0.00161601
2562	0.0011543
2574	0.000615624
2586	0.00176992
2598	0.00277031
2610	0.00353984
2622	0.00554062
2634	0.00454023
2646	0.00446327
2658	0.00454023
2670	0.00469413
2682	0.00538671
2694	0.00584843
2706	0.00469413
2718	0.00554062
2730	0.00761835
2742	0.0110043
2754	0.0118508
2766	0.00892655
2778	0.0103887
2790	0.0130051
2802	0.016314
2814	0.0224703
2826	0.0363988
2838	0.0760296
2850	0.120893
2862	0.148827
2874	0.219393
2886	0.331283
2898	0.282264
2910	0.2187
2922	0.274184
2934	0.417239
2946	0.563065
2958	0.584843
2970	0.766606
2982	0.609006
2994	0.233706
3006	0.110581
3018	0.0791846
3030	0.0549444
3042	0.0335515
3054	0.0224703
3066	0.0175453
3078	0.0143133
3090	0.013159
3102	0.0118508
3114	0.00931131
3126	0.00877264
3138	0.00777225
3150	0.00669491
3162	0.00515585
3174	0.00623319
3186	0.00615624
3198	0.00538671
3210	0.00484804
3222	0.00400156
3234	0.00407851
3246	0.00184687
3258	0.00146211
3270	0.00284726
3282	0.00200078
3294	0.000461718
3306	0.00076953
3318	0.00153906
3330	0.00215468
3342	0.0011543
3354	0.00200078
3366	0.00230859
3378	0.000538671
3390	0.00200078
3402	0.000923436
3414	0.0011543
3426	0.000846483
3438	0.00123125
3450	0.00230859
3462	0.00138515
3474	0.000923436
3486	0.00200078
3498	0.000538671
3510	0.00184687
3522	0.0013082
3534	0.000615624
3546	0.00353984
3558	0.000307812
3570	0.00515585
3582	0.00123125
3594	0.00269336
3606	0.00138515
3618	0.0024625
3630	0.00908045
3642	0.00192383
3654	0.00400156
3666	0.0011543
3678	0.00746444
3690	0.00677186
3702	0.00284726
3714	0.00569452
3726	0.00361679
3738	0.00731054
3750	0.0076953
3762	0.00269336
3774	0.0011543
3786	0.000538671
3798	0.00230859
3810	0.00269336
3822	0.00423242
3834	0.00161601
3846	0.00146211
3858	0.00169297
3870	0.00292421
3882	0.00107734
3894	0.00153906
3906	0.00146211
3918	0
3930	0
3942	0
3954	0
3966	0
