Infrared Spectrum: 3-Pentyn-2-ol
Formula: C 5 H 8 O
CAS: 27301-54-8
State: gas
Instrument: HP-GC/MS/IRD
Origin: NIST Mass Spectrometry Data Center
1/CM	ABSORBANCE
550	0.0008503
562	0.0003047
574	0.0001122
586	0.000176
598	0.0001826
610	0.0003168
622	0.0003839
634	0.0006226
646	0.0006534
658	0.0006138
670	0.0004961
682	0.0004257
694	0.000462
706	0.0005313
718	0.0007854
730	0.0007579
742	0.000627
754	0.0004257
766	0.0002706
778	0.0001848
790	0.0001749
802	0.0001122
814	0.0002046
826	0.0003047
838	0.0004246
850	0.0007425
862	0.0013002
874	0.0025014
886	0.003366
898	0.0030657
910	0.0014938
922	0.0007898
934	0.0006677
946	0.0009196
958	0.0015609
970	0.0029172
982	0.0048048
994	0.0053504
1006	0.004796
1018	0.003102
1030	0.0025597
1042	0.0038434
1054	0.0067089
1066	0.010021
1078	0.0108273
1090	0.0077693
1102	0.0038346
1114	0.0022407
1126	0.0022033
1138	0.0030063
1150	0.0039391
1162	0.0040601
1174	0.0031196
1186	0.0021549
1198	0.0016731
1210	0.001562
1222	0.0017611
1234	0.0022429
1246	0.0027511
1258	0.0028798
1270	0.0025553
1282	0.002288
1294	0.0022671
1306	0.0026279
1318	0.0035827
1330	0.0053933
1342	0.0077121
1354	0.0097306
1366	0.0095843
1378	0.0075515
1390	0.004785
1402	0.0026433
1414	0.0020141
1426	0.001881
1438	0.0018964
1450	0.0020559
1462	0.0019415
1474	0.0013717
1486	0.0010208
1498	0.0009273
1510	0.0007183
1522	0.0005852
1534	0.0005357
1546	0.0005489
1558	0.0004312
1570	0.000385
1582	0.0002915
1594	0.0002772
1606	0.0002398
1618	0.0002189
1630	0.000165
1642	0.0001375
1654	0.0001309
1666	0.0001155
1678	0.0001199
1690	0.0001287
1702	0.0001243
1714	8.58e-05
1726	7.15e-05
1738	7.59e-05
1750	7.26e-05
1762	8.03e-05
1774	0.0001023
1786	6.6e-05
1798	4.07e-05
1810	3.96e-05
1822	2.97e-05
1834	4.51e-05
1846	4.73e-05
1858	6.27e-05
1870	9.79e-05
1882	0.0001045
1894	8.58e-05
1906	9.24e-05
1918	3.85e-05
1930	4.51e-05
1942	5.39e-05
1954	6.38e-05
1966	5.83e-05
1978	5.5e-05
1990	3.63e-05
2002	1.1e-06
2014	2.75e-05
2026	4.4e-05
2038	4.07e-05
2050	0.0001133
2062	9.9e-05
2074	7.04e-05
2086	2.97e-05
2098	6.16e-05
2110	5.39e-05
2122	8.03e-05
2134	7.92e-05
2146	0.0001122
2158	7.37e-05
2170	9.68e-05
2182	0.0001782
2194	0.0002695
2206	0.000484
2218	0.0006666
2230	0.0008899
2242	0.0011187
2254	0.0010813
2266	0.0007557
2278	0.0003927
2290	0.0002926
2302	0.0002794
2314	0.0002486
2326	0.0002035
2338	0.0001419
2350	0.0001265
2362	0.0001386
2374	0.000121
2386	0.0001089
2398	0.0001056
2410	0.0001243
2422	0.0001364
2434	0.0001826
2446	0.000165
2458	0.0002057
2470	0.0001628
2482	0.0001584
2494	0.0001309
2506	0.0001199
2518	0.0001309
2530	0.0001595
2542	0.0001529
2554	0.0001298
2566	0.0001397
2578	0.0001661
2590	0.0002046
2602	0.0002332
2614	0.0002288
2626	0.0002013
2638	0.0001551
2650	0.0001485
2662	0.0001551
2674	0.0001771
2686	0.0001837
2698	0.0001826
2710	0.0002156
2722	0.0002805
2734	0.0003531
2746	0.0004422
2758	0.0004488
2770	0.0003707
2782	0.0003289
2794	0.000363
2806	0.0004466
2818	0.0005071
2830	0.0006039
2842	0.0008602
2854	0.0015004
2866	0.0028908
2878	0.0040634
2890	0.0045188
2902	0.0042372
2914	0.004345
2926	0.0064999
2938	0.0066517
2950	0.0053196
2962	0.0033517
2974	0.0051029
2986	0.0080201
2998	0.0069322
3010	0.003531
3022	0.0015884
3034	0.0010131
3046	0.0007546
3058	0.0006358
3070	0.0005676
3082	0.0004257
3094	0.0004136
3106	0.0004026
3118	0.000363
3130	0.0002915
3142	0.0002211
3154	0.0001441
3166	0.0001914
3178	0.0001496
3190	0.0001661
3202	0.0002189
3214	0.0002123
3226	0.0002112
3238	0.0001925
3250	0.0001628
3262	0.0001397
3274	0.0001298
3286	0.0001507
3298	0.0001309
3310	0.0001672
3322	0.0001474
3334	0.0001617
3346	0.000132
3358	0.0001694
3370	0.0002189
3382	0.0002409
3394	0.0002376
3406	0.0001859
3418	0.0001958
3430	0.0001837
3442	0.0001804
3454	0.0002057
3466	0.0002156
3478	0.0001969
3490	0.0001958
3502	0.0002662
3514	0.0002926
3526	0.0002827
3538	0.0002607
3550	0.0002431
3562	0.0001727
3574	0.0001815
3586	0.0002332
3598	0.0002827
3610	0.0004125
3622	0.0009339
3634	0.0018744
3646	0.0026422
3658	0.002629
3670	0.0017017
3682	0.0007656
3694	0.0003707
3706	0.0002442
3718	0.0002035
3730	0.0002211
3742	0.0001804
3754	0.0002343
3766	0.000242
3778	0.0003058
3790	0.0002497
3802	0.000308
3814	0.0002607
3826	0.000209
3838	0.0002651
