Infrared Spectrum: GLYCOLAMIDE
Formula: C2 H5 N O2
CAS: 598-42-5
State: SOLID (SPLIT MULL)
Class: COBLENTZ III
Instrument: DOW KBr FOREPRISM-GRATING
Instrument parameters: BLAZED AT 3.5, 12.0, 20.0 MICRON AND CHANGED AT 5.0, 7.5, 14.9 MICRON
Sampling: TRANSMISSION
Resolution: 2
Origin: DOW CHEMICAL COMPANY
1/CM	TRANSMITTANCE
382	0.8896
391	0.8906
400	0.8924
409	0.898
418	0.9066
427	0.9132
436	0.919
445	0.9242
454	0.9288
463	0.9303
472	0.9321
481	0.9391
490	0.9451
499	0.9342
508	0.906
517	0.5515
526	0.9273
535	0.9191
544	0.7425
553	0.9216
562	0.9241
571	0.9128
580	0.8878
589	0.7356
598	0.7571
607	0.8398
616	0.8232
625	0.7937
634	0.733
643	0.6826
652	0.6036
661	0.5051
670	0.4138
679	0.3202
688	0.284
697	0.279
706	0.2967
715	0.3457
724	0.3908
733	0.4466
742	0.4916
751	0.5237
760	0.612
769	0.7015
778	0.771
787	0.8393
796	0.8616
805	0.8707
814	0.8718
823	0.8568
832	0.8324
841	0.8568
850	0.8994
859	0.9206
868	0.9245
877	0.9275
886	0.9473
895	0.9549
904	0.9568
913	0.9552
922	0.9525
931	0.9491
940	0.943
949	0.9363
958	0.9305
967	0.923
976	0.9084
985	0.8541
994	0.8026
1003	0.924
1012	0.918
1021	0.9098
1030	0.9013
1039	0.8845
1048	0.8411
1057	0.7734
1066	0.6499
1075	0.1791
1084	0.0622
1093	0.2022
1102	0.5757
1111	0.8318
1120	0.89
1129	0.9073
1138	0.9124
1147	0.9071
1156	0.9035
1165	0.907
1174	0.8858
1183	0.8802
1192	0.8764
1201	0.8721
1210	0.8573
1219	0.8342
1228	0.8043
1237	0.6999
1246	0.724
1255	0.7275
1264	0.7498
1273	0.7318
1282	0.7124
1291	0.693
1300	0.6671
1309	0.6435
1318	0.6157
1327	0.5662
1336	0.3868
1345	0.1704
1354	0.5384
1363	0.602
1372	0.522
1381	0.4485
1390	0.4965
1399	0.4634
1408	0.3612
1417	0.3004
1426	0.4309
1435	0.3494
1444	0.2977
1453	0.4334
1462	0.4539
1471	0.5152
1480	0.5853
1489	0.6134
1498	0.6196
1507	0.6165
1516	0.6005
1525	0.5633
1534	0.4926
1543	0.4769
1552	0.3876
1561	0.3382
1570	0.3088
1579	0.2668
1588	0.2752
1597	0.3153
1606	0.3246
1615	0.2873
1624	0.2391
1633	0.1929
1642	0.1436
1651	0.0958
1660	0.0974
1669	0.0996
1678	0.0788
1687	0.0941
1696	0.3039
1705	0.5593
1714	0.7218
1723	0.8411
1732	0.8728
1741	0.879
1750	0.868
1759	0.9181
1768	0.9521
1777	0.9621
1786	0.9684
1795	0.976
1804	0.9831
1813	0.987
1822	0.9907
1831	0.9928
1840	0.9923
1849	0.99
1858	0.9884
1867	0.9881
1876	0.9889
1885	0.9901
1894	0.9906
1903	0.9894
1912	0.9875
1921	0.9856
1930	0.9838
1939	0.9797
1948	0.9761
1957	0.9801
1966	0.9705
1975	0.9604
1984	0.9646
1993	0.9555
2002	0.9725
2011	0.9745
2020	0.9739
2029	0.9718
2038	0.9681
2047	0.9643
2056	0.9609
2065	0.9581
2074	0.9558
2083	0.9535
2092	0.9513
2101	0.949
2110	0.9464
2119	0.9433
2128	0.936
2137	0.931
2146	0.9324
2155	0.9309
2164	0.9274
2173	0.9233
2182	0.9228
2191	0.9278
2200	0.9307
2209	0.9275
2218	0.9216
2227	0.9139
2236	0.9074
2245	0.9042
2254	0.9017
2263	0.9
2272	0.8992
2281	0.8992
2290	0.9002
2299	0.9016
2308	0.9
2317	0.896
2326	0.8962
2335	0.9025
2344	0.9033
2353	0.9012
2362	0.8989
2371	0.896
2380	0.8921
2389	0.8868
2398	0.88
2407	0.8717
2416	0.8632
2425	0.8537
2434	0.8475
2443	0.8475
2452	0.8489
2461	0.8506
2470	0.8495
2479	0.8512
2488	0.8597
2497	0.8621
2506	0.8585
2515	0.8534
2524	0.8484
2533	0.8473
2542	0.8475
2551	0.8481
2560	0.8473
2569	0.8446
2578	0.8401
2587	0.8345
2596	0.8259
2605	0.8153
2614	0.8017
2623	0.7865
2632	0.7711
2641	0.7599
2650	0.7548
2659	0.7484
2668	0.7148
2677	0.6878
2686	0.6912
2695	0.6961
2704	0.7119
2713	0.7261
2722	0.7241
2731	0.7188
2740	0.7105
2749	0.7028
2758	0.6956
2767	0.6865
2776	0.6756
2785	0.6626
2794	0.6474
2803	0.6309
2812	0.6073
2821	0.5725
2830	0.5365
2839	0.5044
2848	0.4828
2857	0.4783
2866	0.4872
2875	0.509
2884	0.5124
2893	0.5129
2902	0.5122
2911	0.5105
2920	0.4944
2929	0.4639
2938	0.4515
2947	0.5645
2956	0.556
2965	0.548
2974	0.5545
2983	0.5335
2992	0.5109
3001	0.4882
3010	0.4656
3019	0.443
3028	0.4204
3037	0.3978
3046	0.3752
3055	0.3526
3064	0.33
3073	0.3074
3082	0.2848
3091	0.2627
3100	0.2442
3109	0.2184
3118	0.1994
3127	0.1813
3136	0.1628
3145	0.1412
3154	0.1212
3163	0.1025
3172	0.0847
3181	0.0691
3190	0.065
3199	0.0661
3208	0.0704
3217	0.0785
3226	0.0876
3235	0.0979
3244	0.1073
3253	0.1196
3262	0.1337
3271	0.15
3280	0.1714
3289	0.2058
3298	0.2479
3307	0.2548
3316	0.2546
3325	0.2502
3334	0.2419
3343	0.227
3352	0.2044
3361	0.17
3370	0.1541
3379	0.1794
3388	0.2397
3397	0.3047
3406	0.3899
3415	0.4657
3424	0.5225
3433	0.593
3442	0.6481
3451	0.7042
3460	0.7432
3469	0.7843
3478	0.8147
3487	0.841
3496	0.8661
3505	0.8892
3514	0.9123
3523	0.9325
3532	0.9448
3541	0.9514
3550	0.9562
3559	0.9602
3568	0.9635
3577	0.966
3586	0.9694
3595	0.9697
3604	0.9704
3613	0.9697
3622	0.9688
3631	0.9677
3640	0.9667
3649	0.965
3658	0.9633
3667	0.9613
3676	0.9591
3685	0.9577
3694	0.9578
3703	0.9594
3712	0.9594
3721	0.958
3730	0.9557
3739	0.9525
3748	0.9501
3757	0.9487
3766	0.9475
3775	0.9462
3784	0.945
3793	0.9437
