Infrared Spectrum: Nitrogen fluoride
Formula: F3 N
CAS: 7783-54-2
State: GAS (50 mmHg, N2 ADDED, TOTAL PRESSURE 600 mmHg)
Class: COBLENTZ
Instrument: DOW KBr FOREPRISM-GRATING
Instrument parameters: GRATING CHANGED AT 5.0, 7.5, 15.0 MICRON
Sampling: TRANSMISSION
Path length: 5 CM
Resolution: 2
Origin: DOW CHEMICAL COMPANY
1/CM	TRANSMITTANCE
459	0.8506
468	0.8466
477	0.8432
486	0.8417
495	0.8026
504	0.8494
513	0.8368
522	0.8336
531	0.8403
540	0.8466
549	0.85
558	0.8538
567	0.8585
576	0.8634
585	0.867
594	0.8686
603	0.8694
612	0.8689
621	0.8677
630	0.8664
639	0.8633
648	0.7101
657	0.8532
666	0.8282
675	0.8342
684	0.8686
693	0.88
702	0.8821
711	0.8804
720	0.8842
729	0.8816
738	0.8775
747	0.8781
756	0.8784
765	0.8781
774	0.8774
783	0.877
792	0.8766
801	0.8759
810	0.8738
819	0.8706
828	0.8642
837	0.8501
846	0.8132
855	0.7351
864	0.604
873	0.3727
882	0.0925
891	0.0097
900	0.0102
909	0.0094
918	0.0113
927	0.1092
936	0.6354
945	0.7668
954	0.8295
963	0.8335
972	0.8261
981	0.7568
990	0.7465
999	0.5845
1008	0.403
1017	0.431
1026	0.5744
1035	0.7868
1044	0.6996
1053	0.7448
1062	0.8347
1071	0.8678
1080	0.8767
1089	0.879
1098	0.8773
1107	0.8743
1116	0.8744
1125	0.8775
1134	0.8502
1143	0.8756
1152	0.8721
1161	0.8752
1170	0.8835
1179	0.881
1188	0.8911
1197	0.8933
1206	0.8955
1215	0.8952
1224	0.8941
1233	0.8921
1242	0.8875
1251	0.8784
1260	0.872
1269	0.8688
1278	0.8682
1287	0.8703
1296	0.8711
1305	0.8709
1314	0.8707
1323	0.8704
1332	0.8696
1341	0.8678
1350	0.8666
1359	0.8662
1368	0.8641
1377	0.8578
1386	0.8574
1395	0.8628
1404	0.8636
1413	0.8636
1422	0.8636
1431	0.8623
1440	0.8612
1449	0.861
1458	0.8621
1467	0.8637
1476	0.8632
1485	0.8609
1494	0.8586
1503	0.858
1512	0.859
1521	0.8312
1530	0.8555
1539	0.8428
1548	0.84
1557	0.8512
1566	0.8609
1575	0.8618
1584	0.8623
1593	0.8621
1602	0.8618
1611	0.8613
1620	0.8615
1629	0.8613
1638	0.8612
1647	0.8611
1656	0.8608
1665	0.8601
1674	0.859
1683	0.8605
1692	0.86
1701	0.8577
1710	0.8554
1719	0.8531
1728	0.8515
1737	0.8516
1746	0.8445
1755	0.835
1764	0.8259
1773	0.816
1782	0.8051
1791	0.7951
1800	0.7884
1809	0.7665
1818	0.8175
1827	0.8011
1836	0.8084
1845	0.8259
1854	0.8416
1863	0.8477
1872	0.8475
1881	0.8466
1890	0.844
1899	0.833
1908	0.8075
1917	0.7565
1926	0.7255
1935	0.7211
1944	0.8212
1953	0.848
1962	0.8542
1971	0.8557
1980	0.8567
1989	0.8586
1998	0.8605
2007	0.861
2016	0.8611
2025	0.8611
2034	0.8611
2043	0.8612
2052	0.8613
2061	0.8614
2070	0.8616
2079	0.8618
2088	0.8621
2097	0.8627
2106	0.8633
2115	0.8638
2124	0.864
2133	0.8641
2142	0.864
2151	0.8635
2160	0.863
2169	0.8628
2178	0.8625
2187	0.8623
2196	0.8621
2205	0.8618
2214	0.8616
2223	0.8613
2232	0.8611
2241	0.8608
2250	0.8606
2259	0.8603
2268	0.8601
2277	0.8599
2286	0.8596
2295	0.8592
2304	0.8589
2313	0.859
2322	0.8599
2331	0.8616
2340	0.8628
2349	0.8613
2358	0.8637
2367	0.8668
2376	0.867
2385	0.8675
2394	0.8682
2403	0.8685
2412	0.8691
2421	0.8697
2430	0.8704
2439	0.871
2448	0.8717
2457	0.8724
2466	0.8727
2475	0.8727
2484	0.8725
2493	0.8721
2502	0.8718
2511	0.8713
2520	0.8703
2529	0.8693
2538	0.8684
2547	0.8678
2556	0.8673
2565	0.8667
2574	0.8663
2583	0.8659
2592	0.8657
2601	0.8655
2610	0.8654
2619	0.8653
2628	0.8653
2637	0.8653
2646	0.8649
2655	0.8643
2664	0.8633
2673	0.8623
2682	0.8618
2691	0.8615
2700	0.8639
2709	0.8665
2718	0.8665
2727	0.8666
2736	0.8668
2745	0.8671
2754	0.8673
2763	0.8675
2772	0.8675
2781	0.8673
2790	0.8671
2799	0.867
2808	0.867
2817	0.8673
2826	0.8678
2835	0.8681
2844	0.8671
2853	0.8628
2862	0.8634
2871	0.8638
2880	0.8646
2889	0.8655
2898	0.8665
2907	0.8667
2916	0.8618
2925	0.8568
2934	0.8575
2943	0.8578
2952	0.8586
2961	0.8599
2970	0.8617
2979	0.8635
2988	0.8653
2997	0.8666
3006	0.8673
3015	0.8675
3024	0.8675
3033	0.8671
3042	0.8667
3051	0.8664
3060	0.8662
3069	0.866
3078	0.8659
3087	0.8657
3096	0.8656
3105	0.8656
3114	0.8655
3123	0.8655
3132	0.8654
3141	0.8653
3150	0.8653
3159	0.8651
3168	0.865
3177	0.8648
3186	0.8647
3195	0.8645
3204	0.8644
3213	0.8642
3222	0.8641
3231	0.8635
3240	0.8631
3249	0.8625
3258	0.8621
3267	0.8617
3276	0.8613
3285	0.861
3294	0.8612
3303	0.8613
3312	0.8615
3321	0.8616
3330	0.8618
3339	0.8618
3348	0.862
3357	0.8621
3366	0.8625
3375	0.8628
3384	0.8633
3393	0.8636
3402	0.8641
3411	0.8644
3420	0.8648
3429	0.8651
3438	0.8655
3447	0.8661
3456	0.8667
3465	0.8671
3474	0.8678
3483	0.8684
3492	0.869
3501	0.8699
3510	0.8707
3519	0.8716
3528	0.8724
3537	0.8733
3546	0.8741
3555	0.8748
3564	0.8745
3573	0.874
3582	0.8736
3591	0.8732
3600	0.8728
3609	0.8724
3618	0.8721
3627	0.8718
3636	0.8717
3645	0.8715
3654	0.8714
3663	0.8711
3672	0.871
3681	0.8707
3690	0.8706
3699	0.8703
3708	0.8701
3717	0.8696
3726	0.8691
3735	0.8686
3744	0.8683
3753	0.8678
3762	0.8675
3771	0.868
3780	0.8685
3789	0.8699
3798	0.8717
