Infrared Spectrum: Ethylene, 1,1-dibromo-
Formula: C2 H2 Br2
CAS: 593-92-0
State: GAS (50 mmHg, N2 ADDED, TOTAL PRESSURE 600 mmHg)
Class: COBLENTZ
Instrument: DOW KBr FOREPRISM-GRATING
Instrument parameters: GRATING CHANGED AT 5.0, 7.5, 15.0 MICRON
Sampling: TRANSMISSION
Path length: 5 CM
Resolution: 2
Origin: DOW CHEMICAL COMPANY
1/CM	TRANSMITTANCE
457	0.7422
466	0.7319
475	0.7327
484	0.7816
493	0.8213
502	0.8396
511	0.839
520	0.8332
529	0.8325
538	0.8367
547	0.8399
556	0.8425
565	0.8459
574	0.8468
583	0.8456
592	0.849
601	0.8522
610	0.8429
619	0.8467
628	0.8541
637	0.8573
646	0.8528
655	0.8414
664	0.8227
673	0.7953
682	0.7888
691	0.7217
700	0.216
709	0.0285
718	0.3143
727	0.856
736	0.8556
745	0.8532
754	0.8509
763	0.8497
772	0.849
781	0.8376
790	0.8156
799	0.8105
808	0.8327
817	0.8435
826	0.8521
835	0.8492
844	0.849
853	0.8222
862	0.7144
871	0.3153
880	0.2772
889	0.2724
898	0.5094
907	0.7663
916	0.8469
925	0.8541
934	0.863
943	0.8656
952	0.8652
961	0.8633
970	0.8603
979	0.8565
988	0.8557
997	0.8572
1006	0.8597
1015	0.8628
1024	0.8532
1033	0.8125
1042	0.4239
1051	0.1613
1060	0.212
1069	0.74
1078	0.117
1087	0.1526
1096	0.4597
1105	0.8498
1114	0.8594
1123	0.8562
1132	0.8571
1141	0.854
1150	0.8518
1159	0.8146
1168	0.7238
1177	0.7043
1186	0.8603
1195	0.8703
1204	0.8682
1213	0.8644
1222	0.8602
1231	0.8624
1240	0.8633
1249	0.8561
1258	0.8437
1267	0.8275
1276	0.8108
1285	0.8121
1294	0.8364
1303	0.8516
1312	0.8522
1321	0.8505
1330	0.8462
1339	0.8367
1348	0.8209
1357	0.7755
1366	0.7043
1375	0.6921
1384	0.7138
1393	0.7456
1402	0.7771
1411	0.8094
1420	0.8287
1429	0.8398
1438	0.8438
1447	0.8456
1456	0.8396
1465	0.844
1474	0.8458
1483	0.8498
1492	0.8499
1501	0.8487
1510	0.8454
1519	0.8407
1528	0.8312
1537	0.8216
1546	0.8212
1555	0.8419
1564	0.814
1573	0.7492
1582	0.4752
1591	0.1905
1600	0.1697
1609	0.1334
1618	0.5201
1627	0.7777
1636	0.8422
1645	0.8472
1654	0.8404
1663	0.8476
1672	0.8484
1681	0.8469
1690	0.851
1699	0.8451
1708	0.8475
1717	0.8418
1726	0.8453
1735	0.8369
1744	0.8265
1753	0.7903
1762	0.7731
1771	0.7544
1780	0.8172
1789	0.836
1798	0.8459
1807	0.8532
1816	0.8539
1825	0.8534
1834	0.8526
1843	0.8524
1852	0.8526
1861	0.8528
1870	0.8531
1879	0.8539
1888	0.8559
1897	0.8566
1906	0.8529
1915	0.8535
1924	0.8544
1933	0.8552
1942	0.8558
1951	0.8561
1960	0.8562
1969	0.8565
1978	0.8568
1987	0.8571
1996	0.8576
2005	0.8579
2014	0.8578
2023	0.8576
2032	0.8576
2041	0.8576
2050	0.8574
2059	0.8566
2068	0.8563
2077	0.8566
2086	0.8572
2095	0.8577
2104	0.8584
2113	0.8585
2122	0.8585
2131	0.8585
2140	0.8585
2149	0.8587
2158	0.8591
2167	0.8594
2176	0.8598
2185	0.8602
2194	0.8608
2203	0.8614
2212	0.8624
2221	0.8622
2230	0.8626
2239	0.8632
2248	0.8634
2257	0.8632
2266	0.8633
2275	0.8624
2284	0.8612
2293	0.8591
2302	0.857
2311	0.8554
2320	0.8594
2329	0.8647
2338	0.8689
2347	0.869
2356	0.8685
2365	0.8675
2374	0.8665
2383	0.8657
2392	0.8652
2401	0.8645
2410	0.8637
2419	0.8636
2428	0.8636
2437	0.8635
2446	0.8636
2455	0.8637
2464	0.8637
2473	0.8643
2482	0.8651
2491	0.8659
2500	0.8667
2509	0.867
2518	0.8672
2527	0.8675
2536	0.8678
2545	0.8678
2554	0.8678
2563	0.8677
2572	0.8677
2581	0.8675
2590	0.8673
2599	0.8671
2608	0.8669
2617	0.866
2626	0.8652
2635	0.8642
2644	0.8623
2653	0.8601
2662	0.8599
2671	0.8609
2680	0.8654
2689	0.8684
2698	0.8686
2707	0.8684
2716	0.8685
2725	0.8683
2734	0.868
2743	0.8677
2752	0.8673
2761	0.8669
2770	0.8666
2779	0.8667
2788	0.8668
2797	0.8668
2806	0.8671
2815	0.8673
2824	0.8677
2833	0.8683
2842	0.8683
2851	0.8633
2860	0.8551
2869	0.8528
2878	0.8529
2887	0.8537
2896	0.8553
2905	0.8561
2914	0.8539
2923	0.8458
2932	0.8371
2941	0.8302
2950	0.8226
2959	0.8204
2968	0.8263
2977	0.8405
2986	0.8518
2995	0.8562
3004	0.8573
3013	0.8579
3022	0.8582
3031	0.8586
3040	0.8591
3049	0.8592
3058	0.8593
3067	0.8594
3076	0.8597
3085	0.8601
3094	0.8614
3103	0.8625
3112	0.8633
3121	0.8639
3130	0.8646
3139	0.8648
3148	0.8647
3157	0.8577
3166	0.85
3175	0.8457
3184	0.8483
3193	0.8542
3202	0.8641
3211	0.8681
3220	0.8695
3229	0.87
3238	0.8706
3247	0.871
3256	0.8712
3265	0.8711
3274	0.871
3283	0.8706
3292	0.8703
3301	0.8699
3310	0.8695
3319	0.869
3328	0.8686
3337	0.8684
3346	0.8684
3355	0.8683
3364	0.8683
3373	0.8684
3382	0.8685
3391	0.8685
3400	0.8684
3409	0.8683
3418	0.8681
3427	0.8683
3436	0.8689
3445	0.8695
3454	0.8714
3463	0.8707
3472	0.8716
3481	0.8725
3490	0.8741
3499	0.8751
3508	0.8757
3517	0.8761
3526	0.8762
3535	0.8759
3544	0.8749
3553	0.8733
3562	0.8706
3571	0.869
3580	0.8689
3589	0.869
3598	0.869
3607	0.8689
3616	0.8689
3625	0.869
3634	0.8695
3643	0.8698
3652	0.8702
3661	0.8707
3670	0.8712
3679	0.8717
3688	0.8723
3697	0.8729
3706	0.8736
3715	0.8741
3724	0.8753
3733	0.8778
3742	0.88
3751	0.8794
3760	0.8786
3769	0.8783
3778	0.8782
3787	0.8783
