Infrared Spectrum: 1-Pentene
Formula: C 5 H 10
CAS: 109-67-1
State: gas
Instrument: HP-GC/MS/IRD
Origin: NIST Mass Spectrometry Data Center
1/CM	ABSORBANCE
550	0.0006003
562	0.0001392
574	0.000145
586	0.000319
598	0.0007511
610	0.0013166
622	0.00145
634	0.0014703
646	0.0010382
658	0.000696
670	0.0004263
682	0.0002958
694	0.0002436
706	0.0002494
718	0.0002349
730	0.0002755
742	0.0004466
754	0.0007076
766	0.000783
778	0.0006554
790	0.0003799
802	0.0003277
814	0.0003915
826	0.0006206
838	0.0009367
850	0.0012528
862	0.0019401
874	0.0028855
886	0.0045414
898	0.0071398
910	0.0092771
922	0.0090683
934	0.0063974
946	0.0040339
958	0.0030044
970	0.0031436
982	0.0039121
994	0.0045356
1006	0.0041122
1018	0.0029
1030	0.0019082
1042	0.001334
1054	0.001131
1066	0.0009048
1078	0.0007453
1090	0.0006902
1102	0.0004872
1114	0.0003364
1126	0.0003074
1138	0.0003712
1150	0.0003886
1162	0.0003828
1174	0.0004118
1186	0.0003045
1198	0.0002349
1210	0.0002494
1222	0.0003393
1234	0.0003828
1246	0.0004321
1258	0.0006206
1270	0.0006757
1282	0.0006844
1294	0.0006032
1306	0.0006351
1318	0.000783
1330	0.0010498
1342	0.0011281
1354	0.0010788
1366	0.0011281
1378	0.0015718
1390	0.0018821
1402	0.0019488
1414	0.0020126
1426	0.0025694
1438	0.0032625
1450	0.0038251
1462	0.0037236
1474	0.0028623
1486	0.00203
1498	0.0012586
1510	0.0008149
1522	0.000638
1534	0.0005133
1546	0.0004872
1558	0.000406
1570	0.0003973
1582	0.0004321
1594	0.000609
1606	0.0009831
1618	0.0019285
1630	0.0035409
1642	0.003828
1654	0.003248
1666	0.001131
1678	0.0005278
1690	0.0003451
1702	0.0002523
1714	0.0002001
1726	0.0001827
1738	0.0001885
1750	0.0001479
1762	0.0001479
1774	0.0001508
1786	0.000174
1798	0.0003016
1810	0.0006496
1822	0.0010237
1834	0.0010324
1846	0.0008178
1858	0.0003625
1870	0.0001769
1882	0.0001073
1894	7.25e-05
1906	8.7e-05
1918	6.96e-05
1930	6.09e-05
1942	6.38e-05
1954	0.0001334
1966	0.0001508
1978	0.0001537
1990	0.0001276
2002	7.83e-05
2014	4.93e-05
2026	6.96e-05
2038	8.7e-05
2050	0.0001073
2062	8.41e-05
2074	6.67e-05
2086	6.38e-05
2098	5.8e-05
2110	1.16e-05
2122	2.03e-05
2134	4.93e-05
2146	0
2158	5.51e-05
2170	5.51e-05
2182	6.96e-05
2194	6.38e-05
2206	6.96e-05
2218	6.38e-05
2230	3.77e-05
2242	9.57e-05
2254	3.48e-05
2266	6.96e-05
2278	6.67e-05
2290	5.22e-05
2302	9.86e-05
2314	0.0001305
2326	0.0001421
2338	0.000145
2350	0.0001131
2362	0.0001131
2374	0.0001102
2386	0.000116
2398	0.0001421
2410	0.000116
2422	0.0001102
2434	0.0001363
2446	0.0001305
2458	0.0001276
2470	9.86e-05
2482	0.0001392
2494	0.000145
2506	0.000145
2518	0.0002204
2530	0.0001711
2542	0.0002146
2554	0.000203
2566	0.0002407
2578	0.0002581
2590	0.0002842
2602	0.0002697
2614	0.0002813
2626	0.0002784
2638	0.0003161
2650	0.0003132
2662	0.0003683
2674	0.0003915
2686	0.000406
2698	0.0003915
2710	0.0004495
2722	0.000493
2734	0.0006177
2746	0.0007308
2758	0.0007424
2770	0.0007975
2782	0.0008874
2794	0.0011281
2806	0.0014819
2818	0.0021489
2830	0.0033901
2842	0.0050286
2854	0.007192
2866	0.0100804
2878	0.0132298
2890	0.01479
2902	0.0164836
2914	0.0190994
2926	0.0236785
2938	0.0267322
2950	0.0277385
2962	0.029
2974	0.025868
2986	0.021286
2998	0.0134038
3010	0.0085405
3022	0.005713
3034	0.0040687
3046	0.0037613
3058	0.0043848
3070	0.0060581
3082	0.0071166
3094	0.0063974
3106	0.0038976
3118	0.0019401
3130	0.0012296
3142	0.0008932
3154	0.0007047
3166	0.0006931
3178	0.0005771
3190	0.0005481
3202	0.0004379
3214	0.0003915
3226	0.0002987
3238	0.0002465
3250	0.0002407
3262	0.0001624
3274	0.0002088
3286	0.0002465
3298	0.0002146
3310	0.0001682
3322	0.0001798
3334	0.0001131
3346	0.0001595
3358	0.0002204
3370	0.000145
3382	0.0001102
3394	5.8e-05
3406	9.57e-05
3418	0.0001015
3430	8.7e-05
3442	7.54e-05
3454	0.0001044
3466	4.35e-05
3478	3.77e-05
3490	9.86e-05
3502	0.0001508
3514	7.54e-05
3526	0.0001682
3538	0.0001015
3550	9.28e-05
3562	5.22e-05
3574	0.0001566
3586	8.12e-05
3598	0.0001479
3610	0.0001102
3622	8.7e-05
3634	8.99e-05
3646	0.0001131
3658	0.0001421
3670	0.0001131
3682	0.0001218
3694	0.0001305
3706	0.0001711
3718	0.0001711
3730	0.0001073
3742	0.0001479
3754	0.0001334
3766	8.7e-05
3778	0.0001682
3790	0.0001392
3802	0.000145
3814	0.0001682
3826	0.0001653
3838	0.0002117
