Infrared Spectrum: Propane, 1,2-epithio-
Formula: C3 H6 S
CAS: 1072-43-1
State: SOLUTION (10% CCl4 FOR 2.6-7.5, 10% CS2 FOR 7.5-26)
Class: COBLENTZ III
Instrument: DOW KBr FOREPRISM-GRATING
Instrument parameters: BLAZED AT 3.5, 12.0, 20.0 AND CHANGED AT 5.0, 7.5, 14.9 MICRON
Sampling: TRANSMISSION
Path length: 0.011 CM, 0.011 CM
Resolution: 2
Origin: DOW CHEMICAL COMPANY
1/CM	TRANSMITTANCE
381	0.1326
390	0.1746
399	0.2119
408	0.3172
417	0.4993
426	0.636
435	0.6772
444	0.7187
453	0.7536
462	0.787
471	0.8118
480	0.8338
489	0.8464
498	0.8541
507	0.8609
516	0.8629
525	0.8637
534	0.8613
543	0.8554
552	0.8323
561	0.8184
570	0.8145
579	0.7727
588	0.6954
597	0.2374
606	0.1869
615	0.6399
624	0.6476
633	0.4044
642	0.7471
651	0.849
660	0.8832
669	0.9258
678	0.9217
687	0.9233
696	0.9267
705	0.9335
714	0.9416
723	0.948
732	0.951
741	0.9552
750	0.9592
759	0.9604
768	0.9593
777	0.9581
786	0.9611
795	0.9586
804	0.9548
813	0.944
822	0.9342
831	0.9223
840	0.9227
849	0.932
858	0.8666
867	0.7036
876	0.7846
885	0.8847
894	0.8543
903	0.7147
912	0.6675
921	0.4982
930	0.8256
939	0.8747
948	0.8891
957	0.8925
966	0.889
975	0.8777
984	0.8466
993	0.7402
1002	0.5596
1011	0.7848
1020	0.7677
1029	0.4999
1038	0.5279
1047	0.718
1056	0.667
1065	0.2211
1074	0.2442
1083	0.7595
1092	0.8459
1101	0.8688
1110	0.8761
1119	0.8713
1128	0.8552
1137	0.832
1146	0.7677
1155	0.5979
1164	0.6594
1173	0.8292
1182	0.8446
1191	0.8483
1200	0.8538
1209	0.8572
1218	0.8542
1227	0.8523
1236	0.8567
1245	0.8623
1254	0.8624
1263	0.8619
1272	0.8638
1281	0.8654
1290	0.8608
1299	0.8531
1308	0.845
1317	0.84
1326	0.837
1335	0.7934
1344	0.4119
1353	0.7952
1362	0.8073
1371	0.7529
1380	0.3575
1389	0.7609
1398	0.795
1407	0.7856
1416	0.7602
1425	0.6678
1434	0.2914
1443	0.4115
1452	0.4617
1461	0.5722
1470	0.7442
1479	0.8075
1488	0.8107
1497	0.8071
1506	0.8009
1515	0.7951
1524	0.7828
1533	0.7759
1542	0.7669
1551	0.7648
1560	0.7759
1569	0.8157
1578	0.8108
1587	0.8137
1596	0.8613
1605	0.8704
1614	0.8808
1623	0.8793
1632	0.8754
1641	0.8722
1650	0.8698
1659	0.8689
1668	0.87
1677	0.8711
1686	0.8745
1695	0.8789
1704	0.8814
1713	0.879
1722	0.8763
1731	0.8746
1740	0.8784
1749	0.8827
1758	0.8802
1767	0.8758
1776	0.8747
1785	0.8743
1794	0.8751
1803	0.8736
1812	0.8738
1821	0.8704
1830	0.8695
1839	0.8729
1848	0.875
1857	0.878
1866	0.8783
1875	0.8802
1884	0.8769
1893	0.8686
1902	0.8614
1911	0.8675
1920	0.8718
1929	0.8615
1938	0.8493
1947	0.8603
1956	0.8686
1965	0.8647
1974	0.8619
1983	0.8633
1992	0.8603
2001	0.874
2010	0.8745
2019	0.874
2028	0.8718
2037	0.8691
2046	0.8617
2055	0.8492
2064	0.8191
2073	0.8169
2082	0.861
2091	0.8686
2100	0.8683
2109	0.8731
2118	0.88
2127	0.8816
2136	0.8822
2145	0.8825
2154	0.8822
2163	0.8819
2172	0.8841
2181	0.8843
2190	0.885
2199	0.8855
2208	0.8841
2217	0.8824
2226	0.882
2235	0.8804
2244	0.8794
2253	0.8798
2262	0.8819
2271	0.8823
2280	0.8835
2289	0.883
2298	0.8795
2307	0.8807
2316	0.8866
2325	0.8901
2334	0.8871
2343	0.8856
2352	0.8862
2361	0.8824
2370	0.884
2379	0.8835
2388	0.885
2397	0.8887
2406	0.8899
2415	0.8881
2424	0.8871
2433	0.8856
2442	0.8838
2451	0.882
2460	0.8815
2469	0.883
2478	0.8872
2487	0.8863
2496	0.8836
2505	0.8834
2514	0.8856
2523	0.8837
2532	0.8805
2541	0.8804
2550	0.886
2559	0.8888
2568	0.8865
2577	0.8831
2586	0.8803
2595	0.8807
2604	0.8817
2613	0.8832
2622	0.8847
2631	0.8835
2640	0.8835
2649	0.8833
2658	0.8834
2667	0.8813
2676	0.8716
2685	0.8716
2694	0.883
2703	0.8829
2712	0.88
2721	0.8751
2730	0.8693
2739	0.8559
2748	0.7896
2757	0.8763
2766	0.8769
2775	0.8744
2784	0.8743
2793	0.8663
2802	0.8593
2811	0.8489
2820	0.8381
2829	0.82
2838	0.8241
2847	0.8148
2856	0.7648
2865	0.5604
2874	0.6904
2883	0.6379
2892	0.5499
2901	0.5577
2910	0.6437
2919	0.4929
2928	0.285
2937	0.356
2946	0.6627
2955	0.6187
2964	0.443
2973	0.3218
2982	0.2932
2991	0.2432
3000	0.2349
3009	0.394
3018	0.4016
3027	0.5395
3036	0.7479
3045	0.7966
3054	0.7896
3063	0.7729
3072	0.755
3081	0.7785
3090	0.847
3099	0.8567
3108	0.8592
3117	0.8621
3126	0.8632
3135	0.8636
3144	0.8627
3153	0.8646
3162	0.8638
3171	0.8615
3180	0.8594
3189	0.8597
3198	0.8606
3207	0.8628
3216	0.8668
3225	0.8673
3234	0.8701
3243	0.8713
3252	0.8702
3261	0.8686
3270	0.8664
3279	0.8667
3288	0.8664
3297	0.8678
3306	0.8705
3315	0.8693
3324	0.8694
3333	0.8693
3342	0.8707
3351	0.869
3360	0.8672
3369	0.8666
3378	0.8679
3387	0.8703
3396	0.8712
3405	0.87
3414	0.8692
3423	0.87
3432	0.8723
3441	0.8728
3450	0.8723
3459	0.8707
3468	0.8689
3477	0.867
3486	0.8659
3495	0.8655
3504	0.8652
3513	0.8656
3522	0.866
3531	0.868
3540	0.8675
3549	0.8677
3558	0.8677
3567	0.8675
3576	0.8683
3585	0.8685
3594	0.8672
3603	0.8641
3612	0.8575
3621	0.8528
3630	0.851
3639	0.8524
3648	0.8574
3657	0.8629
3666	0.8657
3675	0.8669
3684	0.8664
3693	0.8665
3702	0.8663
3711	0.866
3720	0.8672
3729	0.8696
3738	0.8713
3747	0.87
3756	0.8701
3765	0.8702
3774	0.8704
3783	0.8688
3792	0.8699
3801	0.8681
3810	0.8698
