Infrared Spectrum: 2-METHYL-1,3-PENTADIENE
Formula: C6 H10
CAS: 1118-58-7
State: LIQUID (NEAT)
Boiling point: 77 C
Class: COBLENTZ III
Instrument: UNICAM SP-200
Sampling: TRANSMISSION
Path length: CAPILLARY
Resolution: 4
Origin: BUSH BOAKE ALLEN LTD. VIA SCIENTIFIC DOC. CENTRE LTD.
1/CM	TRANSMITTANCE
658.506	0.623
669.635	0.686
680.764	0.7
691.892	0.749
703.021	0.791
714.15	0.807
725.279	0.817
736.408	0.827
747.537	0.835
758.665	0.831
769.794	0.837
780.923	0.834
792.052	0.81
803.181	0.733
814.309	0.3591
825.438	0.638
836.567	0.759
847.696	0.77
858.825	0.688
869.954	0.4501
881.082	0.141
892.211	0.151
903.34	0.369
914.469	0.621
925.598	0.62
936.726	0.316
947.855	0.503
958.984	0.154
970.113	0.187
981.242	0.503
992.37	0.358
1003.5	0.584
1014.63	0.411
1025.76	0.678
1036.89	0.707
1048.01	0.701
1059.14	0.645
1070.27	0.741
1081.4	0.759
1092.53	0.757
1103.66	0.765
1114.79	0.785
1125.92	0.792
1137.05	0.795
1148.17	0.795
1159.3	0.797
1170.43	0.797
1181.56	0.804
1192.69	0.804
1203.82	0.762
1214.95	0.704
1226.08	0.746
1237.2	0.745
1248.33	0.75
1259.46	0.748
1270.59	0.762
1281.72	0.761
1292.85	0.731
1303.98	0.658
1315.11	0.608
1326.23	0.731
1337.36	0.724
1348.49	0.689
1359.62	0.577
1370.75	0.475
1381.88	0.216
1393.01	0.53
1404.14	0.581
1415.27	0.4489
1426.39	0.458
1437.52	0.269
1448.65	0.204
1459.78	0.273
1470.91	0.561
1482.04	0.667
1493.17	0.706
1504.3	0.721
1515.42	0.744
1526.55	0.769
1537.68	0.774
1548.81	0.774
1559.94	0.766
1571.07	0.757
1582.2	0.748
1593.33	0.675
1604.46	0.3859
1615.58	0.4321
1626.71	0.644
1637.84	0.619
1648.97	0.548
1660.1	0.5971
1671.23	0.766
1682.36	0.807
1693.49	0.81
1704.61	0.805
1715.74	0.795
1726.87	0.804
1738	0.769
1749.13	0.678
1760.26	0.587
1771.39	0.599
1782.52	0.708
1793.65	0.768
1804.77	0.801
1815.9	0.816
1827.03	0.818
1838.16	0.787
1849.29	0.779
1860.42	0.819
1871.55	0.84
1882.68	0.847
1893.8	0.848
1904.93	0.847
1916.06	0.842
1927.19	0.84
1938.32	0.85
1949.45	0.852
1960.58	0.849
1971.71	0.847
1982.84	0.847
1993.96	0.846
2005.09	0.84
2016.22	0.821
2027.35	0.8292
2038.48	0.8322
2049.61	0.837
2060.74	0.8349
2071.87	0.8254
2082.99	0.8264
2094.12	0.8304
2105.25	0.8251
2116.38	0.8267
2127.51	0.83
2138.64	0.83
2149.77	0.83
2160.9	0.83
2172.03	0.8318
2183.15	0.8276
2194.28	0.8236
2205.41	0.8166
2216.54	0.8202
2227.67	0.8247
2238.8	0.8238
2249.93	0.8223
2261.06	0.817
2272.18	0.8197
2283.31	0.818
2294.44	0.818
2305.57	0.8155
2316.7	0.813
2327.83	0.815
2338.96	0.8195
2350.09	0.822
2361.21	0.8238
2372.34	0.8263
2383.47	0.828
2394.6	0.8192
2405.73	0.8024
2416.86	0.8049
2427.99	0.8118
2439.12	0.813
2450.25	0.813
2461.37	0.8107
2472.5	0.8013
2483.63	0.796
2494.76	0.8037
2505.89	0.8124
2517.02	0.814
2528.15	0.813
2539.28	0.8111
2550.4	0.808
2561.53	0.806
2572.66	0.8106
2583.79	0.8035
2594.92	0.8
2606.05	0.7999
2617.18	0.8038
2628.31	0.8069
2639.44	0.8062
2650.56	0.803
2661.69	0.801
2672.82	0.8001
2683.95	0.798
2695.08	0.797
2706.21	0.7927
2717.34	0.7635
2728.47	0.6921
2739.59	0.6709
2750.72	0.7178
2761.85	0.7429
2772.98	0.7535
2784.11	0.752
2795.24	0.741
2806.37	0.71
2817.5	0.6844
2828.63	0.6469
2839.75	0.5948
2850.88	0.4685
2862.01	0.2926
2873.14	0.26
2884.27	0.2563
2895.4	0.2289
2906.53	0.2167
2917.66	0.165
2928.78	0.1081
2939.91	0.1
2951.04	0.098
2962.17	0.1124
2973.3	0.122
2984.43	0.122
2995.56	0.1349
3006.69	0.1883
3017.82	0.2357
3028.94	0.2889
3040.07	0.2508
3051.2	0.2552
3062.33	0.3868
3073.46	0.4676
3084.59	0.4666
3095.72	0.4063
3106.85	0.363
3117.97	0.4801
3129.1	0.6233
3140.23	0.6697
3151.36	0.6914
3162.49	0.7
3173.62	0.7064
3184.75	0.7146
3195.88	0.7217
3207	0.7296
3218.13	0.7357
3229.26	0.7444
3240.39	0.7504
3251.52	0.758
3262.65	0.753
3273.78	0.7548
3284.91	0.753
3296.04	0.7535
3307.16	0.7563
3318.29	0.7547
3329.42	0.753
3340.55	0.751
3351.68	0.751
3362.81	0.751
3373.94	0.7482
3385.07	0.746
3396.19	0.744
3407.32	0.7437
3418.45	0.743
3429.58	0.7433
3440.71	0.744
3451.84	0.753
3462.97	0.7472
3474.1	0.7457
3485.23	0.744
3496.35	0.744
3507.48	0.7393
3518.61	0.7333
3529.74	0.7299
3540.87	0.732
3552	0.731
3563.13	0.7314
3574.26	0.7339
3585.38	0.7317
3596.51	0.7288
3607.64	0.729
3618.77	0.7261
3629.9	0.722
3641.03	0.724
3652.16	0.726
3663.29	0.7269
3674.42	0.7299
3685.54	0.7359
3696.67	0.739
3707.8	0.742
3718.93	0.7455
3730.06	0.745
3741.19	0.7431
3752.32	0.741
3763.45	0.7415
3774.57	0.746
3785.7	0.748
3796.83	0.747
3807.96	0.7455
3819.09	0.744
3830.22	0.746
3841.35	0.745
3852.48	0.742
3863.61	0.741
3874.73	0.7385
3885.86	0.737
3896.99	0.739
3908.12	0.7379
3919.25	0.736
3930.38	0.734
3941.51	0.732
3952.64	0.732
3963.76	0.731
3974.89	0.731
3986.02	0.7304
3997.15	0.729
4008.28	0.729
4019.41	0.729
4030.54	0.73
4041.67	0.73
4052.8	0.729
4063.92	0.7291
4075.05	0.73
4086.18	0.7279
4097.31	0.7244
4108.44	0.72
4119.57	0.7177
4130.7	0.724
4141.83	0.7177
4152.95	0.717
4164.08	0.718
4175.21	0.7202
4186.34	0.723
4197.47	0.7228
4208.6	0.716
4219.73	0.7254
4230.86	0.7229
4241.98	0.7206
4253.11	0.7195
4264.24	0.7208
4275.37	0.715
4286.5	0.7172
4297.63	0.717
4308.76	0.7155
4319.89	0.717
4331.02	0.7137
4342.14	0.7128
4353.27	0.715
4364.4	0.715
4375.53	0.715
4386.66	0.715
4397.79	0.7114
4408.92	0.7116
4420.05	0.7147
4431.17	0.7122
4442.3	0.7106
4453.43	0.7122
4464.56	0.71
4475.69	0.7127
4486.82	0.715
4497.95	0.7121
4509.08	0.715
4520.21	0.7121
4531.33	0.71
4542.46	0.7111
4553.59	0.7124
4564.72	0.7149
4575.85	0.7154
4586.98	0.715
4598.11	0.7082
4609.24	0.71
4620.36	0.7066
4631.49	0.705
4642.62	0.7074
4653.75	0.708
4664.88	0.707
4676.01	0.707
4687.14	0.7089
4698.27	0.7081
4709.4	0.7067
4720.52	0.705
4731.65	0.706
4742.78	0.708
4753.91	0.705
4765.04	0.703
4776.17	0.705
4787.3	0.707
4798.43	0.707
4809.55	0.703
4820.68	0.701
4831.81	0.704
4842.94	0.7075
4854.07	0.7099
4865.2	0.7065
4876.33	0.706
4887.46	0.7065
4898.59	0.706
4909.71	0.7106
4920.84	0.705
4931.97	0.7036
4943.1	0.7058
4954.23	0.702
4965.36	0.7009
4976.49	0.7
4987.62	0.6999
