Infrared Spectrum: 2-Methyl-1,3-pentadiene
Formula: C 6 H 10
CAS: 1118-58-7
State: gas
Instrument: HP-GC/MS/IRD
Origin: NIST Mass Spectrometry Data Center
1/CM	ABSORBANCE
550	0.0004738
562	0.0002047
574	0.0001196
586	0.0001955
598	0.0003128
610	0.0005773
622	0.0005336
634	0.0006279
646	0.0006946
658	0.0007038
670	0.0007038
682	0.0007843
694	0.0006785
706	0.0007222
718	0.0007084
730	0.0006693
742	0.0006325
754	0.0007199
766	0.0007015
778	0.0009315
790	0.0013087
802	0.0020079
814	0.0027853
826	0.0024219
838	0.0024978
850	0.0036846
862	0.0073416
874	0.0112654
886	0.0175099
898	0.011454
910	0.0078361
922	0.0063296
934	0.0092667
946	0.0133262
958	0.0171764
970	0.0128294
982	0.0096784
994	0.0057937
1006	0.0043792
1018	0.0033741
1030	0.0024035
1042	0.0016169
1054	0.0012604
1066	0.0009936
1078	0.0008924
1090	0.0009315
1102	0.0007084
1114	0.0005819
1126	0.0004094
1138	0.0004232
1150	0.0001863
1162	2.3e-05
1174	5.98e-05
1186	0
1198	0.0001886
1210	0.0002967
1222	0.0006003
1234	0.0006739
1246	0.0005336
1258	0.0006049
1270	0.0007958
1282	0.0010971
1294	0.0017756
1306	0.0022563
1318	0.0021183
1330	0.0016146
1342	0.0018193
1354	0.0025668
1366	0.0041653
1378	0.0054878
1390	0.0058696
1402	0.0038709
1414	0.0038893
1426	0.0051681
1438	0.0072772
1450	0.0088803
1462	0.0081742
1474	0.0055085
1486	0.0032936
1498	0.0024081
1510	0.0019481
1522	0.001702
1534	0.0016169
1546	0.0016836
1558	0.0018814
1570	0.0022241
1582	0.0030866
1594	0.0051037
1606	0.0066424
1618	0.006854
1630	0.0050117
1642	0.0040779
1654	0.0032568
1666	0.0023115
1678	0.0011339
1690	0.0006693
1702	0.0005612
1714	0.0005704
1726	0.0006279
1738	0.0008947
1750	0.0015847
1762	0.0028865
1774	0.003289
1786	0.0027002
1798	0.0013593
1810	0.0008234
1822	0.0006785
1834	0.000736
1846	0.0007958
1858	0.0006555
1870	0.0003979
1882	0.000276
1894	0.0002829
1906	0.0002714
1918	0.000276
1930	0.0002645
1942	0.0002346
1954	0.0002323
1966	0.0002691
1978	0.0002737
1990	0.0003818
2002	0.0003864
2014	0.000276
2026	0.0002093
2038	0.0001748
2050	0.0001725
2062	0.0002047
2074	0.0001679
2086	0.0002277
2098	0.0001541
2110	0.0001633
2122	0.0001886
2134	0.0001426
2146	0.0001081
2158	0.0001219
2170	0.0001426
2182	0.0001357
2194	0.0001794
2206	0.0001702
2218	0.0002001
2230	0.000138
2242	0.0002323
2254	0.0001426
2266	0.0001725
2278	0.0001334
2290	0.0001587
2302	0.0002622
2314	0.0002438
2326	0.0002116
2338	0.0001495
2350	0.0002438
2362	0.0001541
2374	0.0002231
2386	0.000299
2398	0.0002944
2410	0.0002714
2422	0.0002001
2434	0.0002369
2446	0.0002047
2458	0.0002162
2470	0.0002645
2482	0.000299
2494	0.0002323
2506	0.0002162
2518	0.0001794
2530	0.0002024
2542	0.0002507
2554	0.0002438
2566	0.0002622
2578	0.0002599
2590	0.0002944
2602	0.0002208
2614	0.0002576
2626	0.0002277
2638	0.0002668
2650	0.0002576
2662	0.0002254
2674	0.0003174
2686	0.0003519
2698	0.0004623
2710	0.0004991
2722	0.0008326
2734	0.001288
2746	0.0014674
2758	0.0011891
2770	0.0010028
2782	0.0010741
2794	0.0012811
2806	0.001564
2818	0.001978
2830	0.0024978
2842	0.0038203
2854	0.006739
2866	0.0099958
2878	0.011684
2890	0.0117277
2902	0.0123303
2914	0.0172086
2926	0.0219351
2938	0.023
2950	0.0198582
2962	0.0186714
2974	0.0200146
2986	0.0195684
2998	0.0153433
3010	0.0133423
3022	0.0130732
3034	0.0119071
3046	0.0101292
3058	0.0075325
3070	0.0080523
3082	0.0108859
3094	0.0096163
3106	0.0051819
3118	0.0025438
3130	0.0018561
3142	0.0014467
3154	0.0012351
3166	0.0008441
3178	0.0007475
3190	0.0005497
3202	0.0005865
3214	0.0004692
3226	0.0005451
3238	0.000345
3250	0.0004255
3262	0.0004094
3274	0.0003749
3286	0.000368
3298	0.0003427
3310	0.0003542
3322	0.0003082
3334	0.0003105
3346	0.0002622
3358	0.0003082
3370	0.00023
3382	0.0002415
3394	0.0002392
3406	0.0003013
3418	0.0003381
3430	0.000276
3442	0.0003588
3454	0.0003151
3466	0.0002507
3478	0.0002622
3490	0.0002714
3502	0.0002691
3514	0.0001909
3526	0.0001771
3538	0.0002737
3550	0.0002461
3562	0.0004094
3574	0.0002369
3586	0.0002277
3598	0.0002507
3610	0.0002254
3622	0.0002622
3634	0.0002921
3646	0.0001863
3658	0.000253
3670	0.0002507
3682	0.0004071
3694	0.000345
3706	0.000299
3718	0.0002691
3730	0.0002921
3742	0.0002783
3754	0.0003979
3766	0.0004186
3778	0.0004232
3790	0.0004416
3802	0.0002898
3814	0.0003082
3826	0.0004163
3838	0.0003197
