Infrared Spectrum: ACETONE OXIME
Formula: C3 H7 N O
CAS: 127-06-0
State: SOLUTION (10% CCl4 FOR 3800-1340, 10% CS2 FOR 1340-400) VS SOLVENT
Class: COBLENTZ II
Instrument: DOW KBr FOREPRISM-GRATING
Instrument parameters: BLAZED AT 3.5, 12.0, 20.0 MICRON AND CHANGED AT 5.0, 7.5, 14.9 MICRON
Sampling: TRANSMISSION
Path length: 0.011 CM, 0.011 CM
Resolution: 2
Origin: DOW CHEMICAL COMPANY
1/CM	TRANSMITTANCE
3816	0.871
3807	0.8712
3798	0.8713
3789	0.8715
3780	0.8717
3771	0.8718
3762	0.872
3753	0.8718
3744	0.8718
3735	0.8714
3726	0.8704
3717	0.8694
3708	0.8677
3699	0.866
3690	0.8645
3681	0.8631
3672	0.8614
3663	0.8595
3654	0.8553
3645	0.8477
3636	0.7315
3627	0.5562
3618	0.6112
3609	0.6976
3600	0.7392
3591	0.7492
3582	0.7491
3573	0.7444
3564	0.7311
3555	0.704
3546	0.6715
3537	0.6271
3528	0.5924
3519	0.5608
3510	0.5077
3501	0.4588
3492	0.4316
3483	0.4055
3474	0.3802
3465	0.35
3456	0.3174
3447	0.2874
3438	0.2529
3429	0.23
3420	0.2066
3411	0.1812
3402	0.1504
3393	0.1258
3384	0.1037
3375	0.0889
3366	0.0799
3357	0.0708
3348	0.0621
3339	0.0549
3330	0.0513
3321	0.0475
3312	0.0438
3303	0.0399
3294	0.0361
3285	0.0323
3276	0.0293
3267	0.0265
3258	0.0242
3249	0.0227
3240	0.0213
3231	0.0214
3222	0.0225
3213	0.0251
3204	0.0302
3195	0.0384
3186	0.0475
3177	0.0583
3168	0.0645
3159	0.0634
3150	0.0619
3141	0.0618
3132	0.0677
3123	0.0751
3114	0.0888
3105	0.1015
3096	0.1124
3087	0.1237
3078	0.1357
3069	0.1474
3060	0.1577
3051	0.1681
3042	0.1787
3033	0.1842
3024	0.186
3015	0.1844
3006	0.1302
2997	0.1229
2988	0.1445
2979	0.1469
2970	0.1196
2961	0.0856
2952	0.0814
2943	0.0982
2934	0.0648
2925	0.0381
2916	0.0493
2907	0.0705
2898	0.0889
2889	0.1062
2880	0.1236
2871	0.1409
2862	0.1535
2853	0.1726
2844	0.2024
2835	0.2412
2826	0.2858
2817	0.3298
2808	0.3697
2799	0.3996
2790	0.4214
2781	0.4389
2772	0.4618
2763	0.4719
2754	0.476
2745	0.477
2736	0.475
2727	0.4907
2718	0.5491
2709	0.5867
2700	0.6066
2691	0.6235
2682	0.6382
2673	0.6524
2664	0.6669
2655	0.6867
2646	0.7
2637	0.7019
2628	0.7108
2619	0.7255
2610	0.739
2601	0.7491
2592	0.7528
2583	0.7548
2574	0.7568
2565	0.7586
2556	0.7615
2547	0.7653
2538	0.7694
2529	0.774
2520	0.7786
2511	0.7814
2502	0.7851
2493	0.7914
2484	0.7972
2475	0.8028
2466	0.808
2457	0.8112
2448	0.8101
2439	0.8092
2430	0.8131
2421	0.8191
2412	0.8227
2403	0.8232
2394	0.8238
2385	0.8264
2376	0.8311
2367	0.8318
2358	0.8318
2349	0.8316
2340	0.8313
2331	0.8294
2322	0.8239
2313	0.8255
2304	0.8277
2295	0.8296
2286	0.8314
2277	0.8331
2268	0.8346
2259	0.8352
2250	0.8359
2241	0.8364
2232	0.837
2223	0.8373
2214	0.8375
2205	0.8347
2196	0.8287
2187	0.827
2178	0.8291
2169	0.8349
2160	0.8371
2151	0.8392
2142	0.8401
2133	0.8406
2124	0.8401
2115	0.8393
2106	0.838
2097	0.8357
2088	0.8349
2079	0.8342
2070	0.8335
2061	0.833
2052	0.833
2043	0.833
2034	0.833
2025	0.8321
2016	0.8311
2007	0.832
1998	0.8368
1989	0.8397
1980	0.8406
1971	0.8414
1962	0.8423
1953	0.8432
1944	0.8434
1935	0.8432
1926	0.8424
1917	0.8385
1908	0.8338
1899	0.8275
1890	0.8232
1881	0.8221
1872	0.8216
1863	0.8228
1854	0.8232
1845	0.8217
1836	0.8198
1827	0.8194
1818	0.819
1809	0.8182
1800	0.8165
1791	0.8137
1782	0.8095
1773	0.8051
1764	0.8015
1755	0.7982
1746	0.7951
1737	0.7925
1728	0.7889
1719	0.7849
1710	0.7801
1701	0.7718
1692	0.7526
1683	0.6288
1674	0.3221
1665	0.503
1656	0.6807
1647	0.7233
1638	0.7232
1629	0.7286
1620	0.7368
1611	0.7376
1602	0.7361
1593	0.7335
1584	0.7294
1575	0.7225
1566	0.7118
1557	0.7019
1548	0.6886
1539	0.6589
1530	0.6027
1521	0.5415
1512	0.4742
1503	0.3921
1494	0.3138
1485	0.2481
1476	0.2326
1467	0.2376
1458	0.2487
1449	0.2382
1440	0.1893
1431	0.1932
1422	0.2284
1413	0.2855
1404	0.341
1395	0.3916
1386	0.2942
1377	0.0826
1368	0.0401
1359	0.4224
1350	0.4635
1341	0.4662
1332	0.5043
1323	0.6082
1314	0.6491
1305	0.68
1296	0.6978
1287	0.7021
1278	0.6887
1269	0.1256
1260	0.295
1251	0.466
1242	0.635
1233	0.7122
1224	0.746
1215	0.7691
1206	0.784
1197	0.7933
1188	0.8015
1179	0.8086
1170	0.8134
1161	0.8182
1152	0.8206
1143	0.8216
1134	0.8215
1125	0.8147
1116	0.8051
1107	0.7832
1098	0.754
1089	0.5893
1080	0.382
1071	0.0754
1062	0.0928
1053	0.2867
1044	0.5462
1035	0.706
1026	0.7556
1017	0.7718
1008	0.7722
999	0.7537
990	0.5605
981	0.2293
972	0.1824
963	0.2148
954	0.1654
945	0.1442
936	0.0964
927	0.2006
918	0.3081
909	0.456
900	0.5717
891	0.6617
882	0.7021
873	0.7096
864	0.711
855	0.7082
846	0.6928
837	0.6382
828	0.4905
819	0.3418
810	0.4606
801	0.462
792	0.4351
783	0.4154
774	0.3996
765	0.3854
756	0.3743
747	0.3616
738	0.3671
729	0.3952
720	0.4354
711	0.4797
702	0.5123
693	0.5462
684	0.5729
675	0.5972
666	0.6231
657	0.6268
648	0.6273
639	0.6435
630	0.6484
621	0.5141
612	0.3746
603	0.4022
594	0.5135
585	0.6487
576	0.7356
567	0.7608
558	0.7761
549	0.7871
540	0.7988
531	0.8164
522	0.8334
513	0.8454
504	0.8541
495	0.8524
486	0.83
477	0.7346
468	0.8617
459	0.8873
450	0.8974
441	0.9023
432	0.9036
423	0.9045
414	0.9056
405	0.906
396	0.9044
387	0.9032
