Infrared Spectrum: 2-CHLORO PROPANE
Formula: C3 H7 Cl
CAS: 75-29-6
State: LIQUID
Melting point: 34-36 C
Class: COBLENTZ
Instrument: Not specified, most likely a prism, grating, or hybrid spectrometer.
Sampling: TRANSMISSION
Path length: 0.005 CM
Resolution: 4
Origin: WYANDOTTE CHEMICALS CORP., WYANDOTTE, MICHIGAN, USA
MICROMETERS	TRANSMITTANCE
2.019	0.993
2.05771	0.988
2.09642	0.995
2.13513	0.98
2.17384	0.94
2.21256	0.85
2.25127	0.842
2.28998	0.87
2.32869	0.873
2.3674	0.876
2.40611	0.875
2.44482	0.893
2.48353	0.93
2.52225	0.933
2.56096	0.94
2.59967	0.936
2.63838	0.949
2.67709	0.954
2.7158	0.951
2.75451	0.946
2.79322	0.918
2.83194	0.933
2.87065	0.93
2.90936	0.928
2.94807	0.91
2.98678	0.897
3.02549	0.904
3.0642	0.858
3.10291	0.821
3.14163	0.813
3.18034	0.857
3.21905	0.867
3.25776	0.839
3.29647	0.664
3.33518	0.191
3.37389	0.038
3.4126	0.047
3.45131	0.129
3.49003	0.183
3.52874	0.594
3.56745	0.701
3.60616	0.795
3.64487	0.803
3.68358	0.739
3.72229	0.839
3.761	0.875
3.79972	0.803
3.83843	0.857
3.87714	0.847
3.91585	0.863
3.95456	0.862
3.99327	0.854
4.03198	0.802
4.07069	0.863
4.10941	0.876
4.14812	0.862
4.18683	0.875
4.22554	0.878
4.26425	0.85
4.30296	0.854
4.34167	0.867
4.38038	0.846
4.4191	0.818
4.45781	0.868
4.49652	0.805
4.53523	0.805
4.57394	0.867
4.61265	0.886
4.65136	0.88
4.69007	0.893
4.72878	0.894
4.7675	0.888
4.80621	0.881
4.84492	0.871
4.88363	0.876
4.92234	0.873
4.96105	0.875
4.99976	0.87
5.03847	0.86
5.07719	0.873
5.1159	0.884
5.15461	0.875
5.19332	0.871
5.23203	0.875
5.27074	0.875
5.30945	0.867
5.34816	0.852
5.38688	0.854
5.42559	0.867
5.4643	0.863
5.50301	0.858
5.54172	0.839
5.58043	0.844
5.61914	0.847
5.65785	0.842
5.69657	0.811
5.73528	0.823
5.77399	0.81
5.8127	0.784
5.85141	0.789
5.89012	0.789
5.92883	0.782
5.96754	0.779
6.00626	0.79
6.04497	0.8
6.08368	0.811
6.12239	0.818
6.1611	0.823
6.19981	0.811
6.23852	0.815
6.27723	0.815
6.31594	0.82
6.35466	0.823
6.39337	0.828
6.43208	0.816
6.47079	0.807
6.5095	0.79
6.54821	0.776
6.58692	0.714
6.62563	0.602
6.66435	0.505
6.70306	0.419
6.74177	0.329
6.78048	0.108
6.81919	0.064
6.8579	0.05
6.89661	0.032
6.93532	0.087
6.97404	0.28
7.01275	0.405
7.05146	0.468
7.09017	0.435
7.12888	0.35
7.16759	0.197
7.2063	0.048
7.24501	0.034
7.28373	0.03
7.32244	0.144
7.36115	0.468
7.39986	0.581
7.43857	0.658
7.47728	0.674
7.51599	0.627
7.5547	0.622
7.59341	0.636
7.63213	0.598
7.67084	0.598
7.70955	0.576
7.74826	0.525
7.78697	0.385
7.82568	0.194
7.86439	0.068
7.9031	0.025
7.94182	0.019
7.98053	0.025
8.01924	0.113
8.05795	0.29
8.09666	0.435
8.13537	0.528
8.17408	0.555
8.21279	0.599
8.25151	0.632
8.29022	0.651
8.32893	0.654
8.36764	0.648
8.40635	0.593
8.44506	0.504
8.48377	0.377
8.52248	0.21
8.5612	0.098
8.59991	0.03
8.63862	0.024
8.67733	0.077
8.71604	0.244
8.75475	0.351
8.79346	0.329
8.83217	0.213
8.87088	0.273
8.9096	0.388
8.94831	0.526
8.98702	0.58
9.02573	0.632
9.06444	0.648
9.10315	0.633
9.14186	0.611
9.18057	0.555
9.21929	0.476
9.258	0.358
9.29671	0.235
9.33542	0.131
9.37413	0.032
9.41284	0.014
9.45155	0.024
9.49026	0.121
9.52898	0.341
9.56769	0.489
9.6064	0.576
9.64511	0.628
9.68382	0.658
9.72253	0.68
9.76124	0.693
9.79995	0.719
9.83867	0.748
9.87738	0.769
9.91609	0.784
9.9548	0.792
9.99351	0.802
10.0322	0.81
10.0709	0.808
10.1096	0.81
10.1484	0.813
10.1871	0.807
10.2258	0.807
10.2645	0.805
10.3032	0.8
10.3419	0.784
10.3806	0.784
10.4193	0.768
10.458	0.756
10.4968	0.734
10.5355	0.703
10.5742	0.675
10.6129	0.653
10.6516	0.623
10.6903	0.57
10.729	0.507
10.7677	0.499
10.8064	0.567
10.8452	0.632
10.8839	0.662
10.9226	0.669
10.9613	0.662
11	0.635
11.0387	0.594
11.0774	0.538
11.1161	0.455
11.1548	0.364
11.1936	0.239
11.2323	0.155
11.271	0.045
11.3097	0.019
11.3484	0.025
11.3871	0.059
11.4258	0.171
11.4645	0.33
11.5032	0.46
11.542	0.554
11.5807	0.615
11.6194	0.669
11.6581	0.698
11.6968	0.724
11.7355	0.734
11.7742	0.75
11.8129	0.76
11.8516	0.773
11.8904	0.789
11.9291	0.799
11.9678	0.805
12.0065	0.811
12.0452	0.81
12.0839	0.816
12.1226	0.811
12.1613	0.813
12.2	0.821
12.2388	0.828
12.2775	0.823
12.3162	0.833
12.3549	0.831
12.3936	0.831
12.4323	0.826
12.471	0.829
12.5097	0.831
12.5485	0.824
12.5872	0.824
12.6259	0.821
12.6646	0.82
12.7033	0.821
12.742	0.828
12.7807	0.823
12.8194	0.823
12.8581	0.824
12.8969	0.811
12.9356	0.803
12.9743	0.799
13.013	0.769
13.0517	0.747
13.0904	0.719
13.1291	0.708
13.1678	0.714
13.2065	0.735
13.2453	0.75
13.284	0.776
13.3227	0.792
13.3614	0.802
13.4001	0.811
13.4388	0.813
13.4775	0.811
13.5162	0.811
13.5549	0.813
13.5937	0.82
13.6324	0.816
13.6711	0.815
13.7098	0.818
13.7485	0.815
13.7872	0.813
13.8259	0.818
13.8646	0.81
13.9033	0.816
13.9421	0.808
13.9808	0.807
14.0195	0.805
14.0582	0.808
14.0969	0.803
14.1356	0.8
14.1743	0.797
14.213	0.799
14.2517	0.794
14.2905	0.79
14.3292	0.79
14.3679	0.784
14.4066	0.779
14.4453	0.766
14.484	0.768
14.5227	0.76
14.5614	0.753
14.6001	0.742
14.6389	0.734
14.6776	0.722
14.7163	0.717
14.755	0.706
14.7937	0.701
14.8324	0.7
14.8711	0.7
14.9098	0.698
14.9485	0.705
14.9873	0.706
15.026	0.688
15.0647	0.687
15.1034	0.696
15.1421	0.7
15.1808	0.7
15.2195	0.685
15.2582	0.682
15.2969	0.674
15.3357	0.662
15.3744	0.648
15.4131	0.641
15.4518	0.641
15.4905	0.622
15.5292	0.594
15.5679	0.585
15.6066	0.564
15.6453	0.559
15.6841	0.547
15.7228	0.546
15.7615	0.542
15.8002	0.533
15.8389	0.528
15.8776	0.517
15.9163	0.52
15.955	0.517
15.9937	0.525
