Infrared Spectrum: 2-CHLOROPROPANE
Formula: C3 H7 Cl
CAS: 75-29-6
State: GAS
Boiling point: 34-36 C
Class: COBLENTZ
Instrument: Not specified, most likely a prism, grating, or hybrid spectrometer.
Sampling: TRANSMISSION
Resolution: 4
Origin: WYANDOTTE CHEMICALS CORP., WYANDOTTE, MICHIGAN, USA
MICROMETERS	TRANSMITTANCE
2.075	1.005
2.11491	1.003
2.15483	1.001
2.19474	0.986
2.23465	0.976
2.27456	0.979
2.31448	0.973
2.35439	0.979
2.3943	0.981
2.43422	0.988
2.47413	0.998
2.51404	0.996
2.55396	1.005
2.59387	0.996
2.63378	0.998
2.67369	0.998
2.71361	1.006
2.75352	1.001
2.79343	0.998
2.83335	0.994
2.87326	0.996
2.91317	0.994
2.95308	0.986
2.993	0.986
3.03291	0.984
3.07282	0.964
3.11274	0.923
3.15265	0.931
3.19256	0.958
3.23247	0.966
3.27239	0.959
3.3123	0.672
3.35221	0.045
3.39213	0.15
3.43204	0.282
3.47195	0.423
3.51187	0.767
3.55178	0.882
3.59169	0.936
3.6316	0.928
3.67152	0.901
3.71143	0.951
3.75134	0.968
3.79126	0.936
3.83117	0.959
3.87108	0.953
3.91099	0.963
3.95091	0.963
3.99082	0.951
4.03073	0.931
4.07065	0.953
4.11056	0.963
4.15047	0.961
4.19038	0.954
4.2303	0.953
4.27021	0.964
4.31012	0.986
4.35004	0.994
4.38995	0.973
4.42986	0.959
4.46978	0.938
4.50969	0.933
4.5496	0.958
4.58951	0.969
4.62943	0.973
4.66934	0.971
4.70925	0.971
4.74917	0.969
4.78908	0.969
4.82899	0.969
4.8689	0.963
4.90882	0.969
4.94873	0.966
4.98864	0.963
5.02856	0.959
5.06847	0.958
5.10838	0.959
5.14829	0.971
5.18821	0.969
5.22812	0.966
5.26803	0.966
5.30795	0.961
5.34786	0.956
5.38777	0.966
5.42769	0.958
5.4676	0.961
5.50751	0.959
5.54742	0.951
5.58734	0.959
5.62725	0.951
5.66716	0.946
5.70708	0.946
5.74699	0.938
5.7869	0.928
5.82681	0.934
5.86673	0.934
5.90664	0.923
5.94655	0.924
5.98647	0.933
6.02638	0.936
6.06629	0.943
6.1062	0.948
6.14612	0.953
6.18603	0.946
6.22594	0.938
6.26586	0.944
6.30577	0.951
6.34568	0.956
6.3856	0.958
6.42551	0.953
6.46542	0.959
6.50533	0.951
6.54525	0.938
6.58516	0.913
6.62507	0.864
6.66499	0.732
6.7049	0.573
6.74481	0.52
6.78472	0.387
6.82464	0.397
6.86455	0.28
6.90446	0.474
6.94438	0.505
6.98429	0.68
7.0242	0.822
7.06411	0.792
7.10403	0.617
7.14394	0.421
7.18385	0.242
7.22377	0.19
7.26368	0.357
7.30359	0.364
7.34351	0.615
7.38342	0.801
7.42333	0.879
7.46324	0.872
7.50316	0.889
7.54307	0.812
7.58298	0.816
7.6229	0.862
7.66281	0.877
7.70272	0.864
7.74263	0.732
7.78255	0.403
7.82246	0.103
7.86237	0.142
7.90229	0.076
7.9422	0.102
7.98211	0.2
8.02202	0.384
8.06194	0.623
8.10185	0.799
8.14176	0.854
8.18168	0.881
8.22159	0.894
8.2615	0.903
8.30142	0.911
8.34133	0.901
8.38124	0.844
8.42115	0.712
8.46107	0.531
8.50098	0.379
8.54089	0.282
8.58081	0.299
8.62072	0.319
8.66063	0.311
8.70054	0.441
8.74046	0.56
8.78037	0.627
8.82028	0.715
8.8602	0.704
8.90011	0.697
8.94002	0.762
8.97993	0.807
9.01985	0.872
9.05976	0.891
9.09967	0.899
9.13959	0.874
9.1795	0.714
9.21941	0.448
9.25933	0.254
9.29924	0.272
9.33915	0.394
9.37906	0.262
9.41898	0.339
9.45889	0.312
9.4988	0.483
9.53872	0.683
9.57863	0.824
9.61854	0.887
9.65845	0.904
9.69837	0.919
9.73828	0.923
9.77819	0.928
9.81811	0.924
9.85802	0.929
9.89793	0.939
9.93784	0.941
9.97776	0.948
10.0177	0.939
10.0576	0.939
10.0975	0.941
10.1374	0.943
10.1773	0.943
10.2172	0.938
10.2571	0.939
10.2971	0.938
10.337	0.929
10.3769	0.924
10.4168	0.926
10.4567	0.921
10.4966	0.909
10.5365	0.897
10.5765	0.889
10.6164	0.871
10.6563	0.859
10.6962	0.874
10.7361	0.867
10.776	0.879
10.8159	0.864
10.8558	0.866
10.8958	0.874
10.9357	0.877
10.9756	0.847
11.0155	0.762
11.0554	0.632
11.0953	0.5
11.1352	0.401
11.1751	0.381
11.2151	0.456
11.255	0.387
11.2949	0.322
11.3348	0.418
11.3747	0.426
11.4146	0.454
11.4545	0.535
11.4944	0.637
11.5344	0.752
11.5743	0.821
11.6142	0.867
11.6541	0.906
11.694	0.918
11.7339	0.921
11.7738	0.931
11.8138	0.934
11.8537	0.938
11.8936	0.939
11.9335	0.941
11.9734	0.941
12.0133	0.951
12.0532	0.949
12.0931	0.956
12.1331	0.951
12.173	0.953
12.2129	0.954
12.2528	0.953
12.2927	0.954
12.3326	0.954
12.3725	0.956
12.4124	0.953
12.4524	0.946
12.4923	0.951
12.5322	0.946
12.5721	0.939
12.612	0.949
12.6519	0.944
12.6918	0.946
12.7317	0.941
12.7717	0.938
12.8116	0.924
12.8515	0.909
12.8914	0.894
12.9313	0.892
12.9712	0.886
13.0111	0.899
13.0511	0.911
13.091	0.924
13.1309	0.928
13.1708	0.933
13.2107	0.931
13.2506	0.938
13.2905	0.938
13.3304	0.939
13.3704	0.939
13.4103	0.941
13.4502	0.941
13.4901	0.943
13.53	0.933
13.5699	0.934
13.6098	0.934
13.6497	0.941
13.6897	0.934
13.7296	0.938
13.7695	0.939
13.8094	0.934
13.8493	0.941
13.8892	0.938
13.9291	0.938
13.969	0.931
14.009	0.929
14.0489	0.931
14.0888	0.933
14.1287	0.928
14.1686	0.923
14.2085	0.928
14.2484	0.924
14.2884	0.921
14.3283	0.921
14.3682	0.918
14.4081	0.914
14.448	0.909
14.4879	0.901
14.5278	0.897
14.5677	0.899
14.6077	0.896
14.6476	0.886
14.6875	0.882
14.7274	0.874
14.7673	0.867
14.8072	0.867
14.8471	0.859
14.887	0.847
14.927	0.846
14.9669	0.837
15.0068	0.834
15.0467	0.822
15.0866	0.832
15.1265	0.844
15.1664	0.851
15.2064	0.849
15.2463	0.844
15.2862	0.839
15.3261	0.832
15.366	0.804
15.4059	0.752
15.4458	0.707
15.4857	0.648
15.5257	0.578
15.5656	0.526
15.6055	0.493
15.6454	0.491
15.6853	0.489
15.7252	0.505
15.7651	0.521
15.805	0.538
15.845	0.545
15.8849	0.555
15.9248	0.568
15.9647	0.583
