Infrared Spectrum: PROPANE, 2-CHLORO-
Formula: C3 H7 Cl
CAS: 75-29-6
State: SOLUTION (10% IN CCl4 FOR 3800-1333, AND 10% IN CS2 FOR 1333-440 CM^-^1)
Boiling point: 35 C
Class: COBLENTZ III
Instrument: DOW KBr FOREPRISM-GRATING
Instrument parameters: BLAZED AT 3.5, 12.0, 20.0 MICRON, CHANGED AT 5.0, 7.5, 14.9 MICRON
Sampling: TRANSMISSION
Path length: 0.011, 0.010 CM
Resolution: 4
Origin: DOW CHEMICAL COMPANY
1/CM	TRANSMITTANCE
436.522	0.99
445.218	0.993
453.913	0.997
462.609	1.001
471.305	1.009
480	1.016
488.696	1.023
497.392	1.028
506.087	1.032
514.783	1.036
523.479	1.038
532.174	1.036
540.87	1.038
549.566	1.039
558.261	1.043
566.957	1.031
575.653	1.024
584.348	1.008
593.044	0.976
601.74	0.844
610.435	0.388
619.131	0.079
627.827	0.3891
636.522	0.859
645.218	0.949
653.914	0.955
662.609	0.994
671.305	1.012
680.001	1.028
688.696	1.036
697.392	1.049
706.088	1.05
714.783	1.054
723.479	1.054
732.175	1.059
740.871	1.061
749.566	1.061
758.262	1.043
766.958	1.057
775.653	1.061
784.349	1.053
793.045	1.054
801.74	1.055
810.436	1.055
819.132	1.057
827.827	1.049
836.523	1.029
845.219	0.994
853.914	0.911
862.61	0.87
871.306	0.855
880.001	0.7279
888.697	0.346
897.393	0.8371
906.088	1.002
914.784	1.024
923.48	1.009
932.175	0.952
940.871	1.006
949.567	1.027
958.262	1.042
966.958	1.051
975.654	1.053
984.349	1.055
993.045	1.058
1001.74	1.054
1010.44	1.047
1019.13	1.034
1027.83	1.024
1036.52	1.005
1045.22	0.961
1053.91	0.8279
1062.61	0.099
1071.31	0.6861
1080	0.937
1088.7	0.995
1097.39	1.009
1106.09	1.006
1114.78	0.989
1123.48	0.937
1132.18	0.769
1140.87	0.914
1149.57	0.82
1158.26	0.4549
1166.96	0.5011
1175.65	0.873
1184.35	0.967
1193.05	1.02
1201.74	1.023
1210.44	1.013
1219.13	0.997
1227.83	0.978
1236.52	0.95
1245.22	0.8029
1253.92	0.3669
1262.61	0.087
1271.31	0.5851
1280	0.848
1288.7	0.937
1297.39	0.968
1306.09	0.965
1314.78	0.964
1323.48	0.956
1332.18	0.961
1340.87	0.968
1349.57	0.955
1358.26	0.926
1366.96	0.825
1375.65	0.25
1384.35	0.565
1393.05	0.5022
1401.74	0.874
1410.44	0.912
1419.13	0.9
1427.83	0.865
1436.52	0.791
1445.22	0.506
1453.92	0.3441
1462.61	0.634
1471.31	0.3813
1480	0.805
1488.7	0.835
1497.39	0.829
1506.09	0.811
1514.79	0.787
1523.48	0.746
1532.18	0.715
1540.87	0.641
1549.57	0.546
1558.26	0.547
1566.96	0.629
1575.66	0.707
1584.35	0.724
1593.05	0.761
1601.74	0.839
1610.44	0.915
1619.13	0.957
1627.83	0.971
1636.52	0.972
1645.22	0.97
1653.92	0.979
1662.61	0.983
1671.31	0.983
1680	0.978
1688.7	0.979
1697.39	0.985
1706.09	0.983
1714.79	0.976
1723.48	0.983
1732.18	0.99
1740.87	0.991
1749.57	0.991
1758.26	0.994
1766.96	0.998
1775.66	0.993
1784.35	1
1793.05	1
1801.74	1.001
1810.44	0.995
1819.13	0.994
1827.83	0.997
1836.53	0.993
1845.22	0.99
1853.92	0.997
1862.61	0.998
1871.31	0.997
1880	0.997
1888.7	0.998
1897.39	1.001
1906.09	1.002
1914.79	1.005
1923.48	1.006
1932.18	1.005
1940.87	1.004
1949.57	1.008
1958.26	1.008
1966.96	1.002
1975.66	1.001
1984.35	1.001
1993.05	0.998
2001.74	0.997
2010.44	0.994
2019.13	1
2027.83	1
2036.53	1.004
2045.22	1.002
2053.92	1.001
2062.61	1.005
2071.31	1.005
2080	1.004
2088.7	1.005
2097.4	1.004
2106.09	1.002
2114.79	1.002
2123.48	1.002
2132.18	1.002
2140.87	1.004
2149.57	1.004
2158.27	1.004
2166.96	1.004
2175.66	1.002
2184.35	1.001
2193.05	1.001
2201.74	1.001
2210.44	1
2219.13	0.998
2227.83	0.998
2236.53	0.994
2245.22	0.99
2253.92	0.979
2262.61	0.965
2271.31	0.968
2280	0.976
2288.7	0.976
2297.4	0.974
2306.09	0.964
2314.79	0.96
2323.48	0.957
2332.18	0.98
2340.87	0.991
2349.57	0.98
2358.27	0.998
2366.96	0.991
2375.66	0.976
2384.35	0.983
2393.05	0.995
2401.74	1
2410.44	1
2419.14	0.998
2427.83	0.991
2436.53	0.995
2445.22	1
2453.92	1
2462.61	0.998
2471.31	0.998
2480	1
2488.7	0.993
2497.4	0.982
2506.09	0.979
2514.79	0.98
2523.48	0.99
2532.18	0.991
2540.87	0.993
2549.57	0.994
2558.27	0.991
2566.96	0.989
2575.66	0.985
2584.35	0.983
2593.05	0.983
2601.74	0.985
2610.44	0.987
2619.14	0.987
2627.83	0.982
2636.53	0.976
2645.22	0.975
2653.92	0.983
2662.61	0.989
2671.31	0.989
2680.01	0.989
2688.7	0.983
2697.4	0.982
2706.09	0.98
2714.79	0.979
2723.48	0.97
2732.18	0.938
2740.88	0.956
2749.57	0.975
2758.27	0.968
2766.96	0.965
2775.66	0.978
2784.35	0.975
2793.05	0.97
2801.74	0.961
2810.44	0.944
2819.14	0.929
2827.83	0.942
2836.53	0.941
2845.22	0.933
2853.92	0.891
2862.61	0.8261
2871.31	0.512
2880.01	0.7459
2888.7	0.768
2897.4	0.681
2906.09	0.724
2914.79	0.5741
2923.48	0.449
2932.18	0.3331
2940.88	0.3502
2949.57	0.621
2958.27	0.595
2966.96	0.4152
2975.66	0.073
2984.35	0.069
2993.05	0.061
3001.75	0.3058
3010.44	0.6361
3019.14	0.8239
3027.83	0.897
3036.53	0.937
3045.22	0.96
3053.92	0.968
3062.61	0.976
3071.31	0.983
3080.01	0.989
3088.7	0.991
3097.4	0.991
3106.09	0.995
3114.79	0.995
3123.48	0.995
3132.18	0.994
3140.88	0.991
3149.57	0.991
3158.27	0.991
3166.96	0.991
3175.66	0.987
3184.35	0.98
3193.05	0.978
3201.75	0.975
3210.44	0.975
3219.14	0.975
3227.83	0.978
3236.53	0.978
3245.22	0.976
3253.92	0.978
3262.62	0.983
3271.31	0.989
3280.01	0.985
3288.7	0.983
3297.4	0.98
3306.09	0.978
3314.79	0.979
3323.49	0.979
3332.18	0.98
3340.88	0.98
3349.57	0.978
3358.27	0.976
3366.96	0.972
3375.66	0.968
3384.35	0.963
3393.05	0.96
3401.75	0.956
3410.44	0.955
3419.14	0.957
3427.83	0.965
3436.53	0.972
3445.22	0.975
3453.92	0.982
3462.62	0.985
3471.31	0.986
3480.01	0.99
3488.7	0.993
3497.4	0.997
3506.09	0.997
3514.79	0.997
3523.49	1
3532.18	1
3540.88	1
3549.57	1
3558.27	0.998
3566.96	0.998
3575.66	0.997
3584.36	0.998
3593.05	0.998
3601.75	1.001
3610.44	1.002
3619.14	1.001
3627.83	1.002
3636.53	1.005
3645.22	1.005
3653.92	1.005
3662.62	1.005
3671.31	1.006
3680.01	1.002
3688.7	1.002
3697.4	1.004
3706.09	1.004
3714.79	1.002
3723.49	1.005
3732.18	1.001
3740.88	1.005
3749.57	1.004
3758.27	1.005
3766.96	1.004
3775.66	1.005
3784.36	1.005
3793.05	0.998
