Infrared Spectrum: Propane, 2-chloro-
Formula: C 3 H 7 Cl
CAS: 75-29-6
State: gas
Origin: Sadtler Research Labs Under US-EPA Contract
1/CM	ABSORBANCE
450	0
462	0.00926951
474	0.00909294
486	0.00856326
498	0.00776873
510	0.00812185
522	0.00768045
534	0.00856326
546	0.00609139
558	0.00715076
570	0.00891638
582	0.0113
594	0.0311632
606	0.12377
618	0.243832
630	0.315163
642	0.263784
654	0.0421983
666	0.0170382
678	0.016332
690	0.0124476
702	0.00926951
714	0.00759217
726	0.00759217
738	0.00926951
750	0.00865154
762	0.00644451
774	0.00582655
786	0.00776873
798	0.00679764
810	0.00759217
822	0.00644451
834	0.00750389
846	0.0103289
858	0.0228648
870	0.0760982
882	0.111852
894	0.0997575
906	0.0700951
918	0.0187156
930	0.0171265
942	0.0176562
954	0.0148312
966	0.0108586
978	0.00803357
990	0.00723904
1002	0.00759217
1014	0.0101523
1026	0.012889
1038	0.0267491
1050	0.107791
1062	0.135511
1074	0.149371
1086	0.0874865
1098	0.0244538
1110	0.0388436
1122	0.0527038
1134	0.0688592
1146	0.124035
1158	0.143368
1170	0.145487
1182	0.0869568
1194	0.024807
1206	0.0146546
1218	0.0195101
1230	0.04211
1242	0.138778
1254	0.290356
1266	0.350829
1278	0.303687
1290	0.0715959
1302	0.0263077
1314	0.0332819
1326	0.0242773
1338	0.0268374
1350	0.0351358
1362	0.0974622
1374	0.151314
1386	0.216906
1398	0.127213
1410	0.0604725
1422	0.0489077
1434	0.0931365
1446	0.102229
1458	0.125889
1470	0.147341
1482	0.0814834
1494	0.0555287
1506	0.027632
1518	0.0170382
1530	0.0128007
1542	0.0102406
1554	0.00803357
1566	0.00688592
1578	0.00670936
1590	0.00865154
1602	0.00759217
1614	0.00759217
1626	0.00918122
1638	0.00856326
1650	0.0121828
1662	0.00953435
1674	0.0125359
1686	0.0127125
1698	0.013507
1710	0.010064
1722	0.00988747
1734	0.0104172
1746	0.00979919
1758	0.00803357
1770	0.00750389
1782	0.00715076
1794	0.00662108
1806	0.00635623
1818	0.00626795
1830	0.00759217
1842	0.00688592
1854	0.00485545
1866	0.00591483
1878	0.00503202
1890	0.00538514
1902	0.00503202
1914	0.00503202
1926	0.00441405
1938	0.00406093
1950	0.00388436
1962	0.00397265
1974	0.00406093
1986	0.00406093
1998	0.00485545
2010	0.0051203
2022	0.00564998
2034	0.00503202
2046	0.00476717
2058	0.00476717
2070	0.00441405
2082	0.00397265
2094	0.00353124
2106	0.00361952
2118	0.0037078
2130	0.0037078
2142	0.00379608
2154	0.00344296
2166	0.0037078
2178	0.00353124
2190	0.00353124
2202	0.00388436
2214	0.00388436
2226	0.00476717
2238	0.00582655
2250	0.00838669
2262	0.00891638
2274	0.00909294
2286	0.00688592
2298	0.00591483
2310	0.00768045
2322	0.00785701
2334	0.00670936
2346	0.00573827
2358	0.00450233
2370	0.00538514
2382	0.00573827
2394	0.00582655
2406	0.00494374
2418	0.00459061
2430	0.00450233
2442	0.00494374
2454	0.0055617
2466	0.00467889
2478	0.00485545
2490	0.00591483
2502	0.00759217
2514	0.00873982
2526	0.00856326
2538	0.00626795
2550	0.00538514
2562	0.00529686
2574	0.00609139
2586	0.00688592
2598	0.0069742
2610	0.00706248
2622	0.00670936
2634	0.00838669
2646	0.00962263
2658	0.00865154
2670	0.00679764
2682	0.00485545
2694	0.00494374
2706	0.00609139
2718	0.0088281
2730	0.0130656
2742	0.0156257
2754	0.0173031
2766	0.0119179
2778	0.00926951
2790	0.0101523
2802	0.0119179
2814	0.0159789
2826	0.0183624
2838	0.0189804
2850	0.0263077
2862	0.0712428
2874	0.107261
2886	0.133569
2898	0.144163
2910	0.14946
2922	0.218937
2934	0.295918
2946	0.31737
2958	0.317812
2970	0.458796
2982	0.88281
2994	0.624323
3006	0.415715
3018	0.198367
3030	0.0602076
3042	0.0166851
3054	0.0105054
3066	0.00918122
3078	0.00821013
3090	0.00847498
3102	0.00812185
3114	0.00803357
3126	0.00776873
3138	0.00785701
3150	0.00829841
3162	0.0088281
3174	0.00962263
3186	0.0113
3198	0.0129773
3210	0.0156257
3222	0.0143015
3234	0.0125359
3246	0.0115648
3258	0.00847498
3270	0.00723904
3282	0.00679764
3294	0.00617967
3306	0.00812185
3318	0.0074156
3330	0.00768045
3342	0.00626795
3354	0.00485545
3366	0.0055617
3378	0.00529686
3390	0.00609139
3402	0.00715076
3414	0.00715076
3426	0.00732732
3438	0.00582655
3450	0.0055617
3462	0.00494374
3474	0.00441405
3486	0.00485545
3498	0.00494374
3510	0.00450233
3522	0.00441405
3534	0.00485545
3546	0.00503202
3558	0.00591483
3570	0.00459061
3582	0.00573827
3594	0.00582655
3606	0.00670936
3618	0.00626795
3630	0.00467889
3642	0.00538514
3654	0.00573827
3666	0.0055617
3678	0.00450233
3690	0.00467889
3702	0.00520858
3714	0.00467889
3726	0.00494374
3738	0.00485545
3750	0.0051203
3762	0.00503202
3774	0.00520858
3786	0.00450233
3798	0.00485545
3810	0.0069742
3822	0.00520858
3834	0.00564998
3846	0.00600311
3858	0.00564998
3870	0.00679764
3882	0.00626795
3894	0.00644451
3906	0.00520858
3918	0.00494374
3930	0.00679764
3942	0.00644451
3954	0.00476717
3966	0.00529686
