Infrared Spectrum: Propargyl isothiocyanate
Formula: C 4 H 3 N S
CAS: 24309-48-6
State: gas
Origin: EPA-IR VAPOR PHASE LIBRARY
1/CM	ABSORBANCE
549.8	0.009608
559.445	0.013718
569.09	0.017988
578.734	0.019188
588.379	0.015508
598.024	0.012998
607.669	0.011878
617.313	0.011998
626.958	0.014988
636.603	0.021228
646.248	0.032408
655.893	0.039298
665.537	0.036328
675.182	0.021318
684.827	0.014098
694.472	0.014518
704.116	0.018458
713.761	0.021118
723.406	0.017358
733.051	0.015448
742.695	0.013638
752.34	0.011308
761.985	0.009108
771.63	0.007798
781.275	0.007468
790.919	0.009198
800.564	0.011628
810.209	0.015118
819.854	0.016228
829.498	0.016798
839.143	0.018028
848.788	0.022018
858.433	0.029828
868.078	0.030298
877.722	0.028348
887.367	0.017908
897.012	0.011768
906.657	0.009978
916.301	0.009718
925.946	0.010558
935.591	0.011598
945.236	0.012058
954.88	0.009528
964.525	0.006848
974.17	0.004808
983.815	0.003918
993.46	0.003138
1003.1	0.002978
1012.75	0.003048
1022.39	0.002848
1032.04	0.002778
1041.68	0.002878
1051.33	0.002828
1060.97	0.002818
1070.62	0.003238
1080.26	0.003338
1089.91	0.003698
1099.55	0.004818
1109.2	0.004198
1118.84	0.003798
1128.49	0.002558
1138.13	0.002508
1147.78	0.002228
1157.42	0.003068
1167.07	0.003288
1176.71	0.002948
1186.36	0.002728
1196	0.002988
1205.64	0.003338
1215.29	0.005908
1224.93	0.011898
1234.58	0.018708
1244.22	0.021198
1253.87	0.016638
1263.51	0.012938
1273.16	0.013818
1282.8	0.014678
1292.45	0.014848
1302.09	0.015968
1311.74	0.019358
1321.38	0.029648
1331.03	0.058158
1340.67	0.054108
1350.32	0.042628
1359.96	0.012318
1369.61	0.007828
1379.25	0.006348
1388.9	0.005068
1398.54	0.004458
1408.18	0.005378
1417.83	0.007888
1427.47	0.008088
1437.12	0.008978
1446.76	0.006408
1456.41	0.005538
1466.05	0.002218
1475.7	0.0014943
1485.34	0.0013178
1494.99	0.0012729
1504.63	0.0013792
1514.28	0.001295
1523.92	0.0013301
1533.57	0.0013807
1543.21	0.0012722
1552.86	0.0011857
1562.5	0.0010565
1572.15	0.0010501
1581.79	0.0010022
1591.44	0.0010388
1601.08	0.0011857
1610.73	0.0012362
1620.37	0.0013896
1630.01	0.0015232
1639.66	0.0016105
1649.3	0.0015367
1658.95	0.0012965
1668.59	0.0014348
1678.24	0.0013406
1687.88	0.0013041
1697.53	0.0013335
1707.17	0.001658
1716.82	0.002328
1726.46	0.003448
1736.11	0.003808
1745.75	0.003438
1755.4	0.002518
1765.04	0.001698
1774.69	0.0013343
1784.33	0.0011999
1793.98	0.0012895
1803.62	0.0013195
1813.27	0.0014599
1822.91	0.001648
1832.55	0.001738
1842.2	0.002078
1851.84	0.002338
1861.49	0.002878
1871.13	0.003598
1880.78	0.004668
1890.42	0.006148
1900.07	0.008358
1909.71	0.011448
1919.36	0.015918
1929	0.021908
1938.65	0.029178
1948.29	0.035728
1957.94	0.043068
1967.58	0.053488
1977.23	0.071688
1986.87	0.098098
1996.52	0.134168
2006.16	0.181638
2015.81	0.238668
2025.45	0.287738
2035.1	0.268978
2044.74	0.203878
2054.38	0.149658
2064.03	0.131478
2073.67	0.112968
2083.32	0.079058
2092.96	0.050448
2102.61	0.035778
2112.25	0.028778
2121.9	0.025368
2131.54	0.022488
2141.19	0.020518
2150.83	0.022968
2160.48	0.029118
2170.12	0.031928
2179.77	0.029128
2189.41	0.025118
2199.06	0.024938
2208.7	0.022888
2218.35	0.017718
2227.99	0.012688
2237.64	0.008808
2247.28	0.006768
2256.92	0.005258
2266.57	0.004068
2276.21	0.003468
2285.86	0.002978
2295.5	0.002768
2305.15	0.002638
2314.79	0.002458
2324.44	0.002588
2334.08	0.002498
2343.73	0.002138
2353.37	0.0015137
2363.02	0.0013775
2372.66	0.0012119
2382.31	0.0012455
2391.95	0.0013031
2401.6	0.0012792
2411.24	0.0011651
2420.89	0.0010163
2430.53	0.0009817
2440.18	0.0009677
2449.82	0.0010101
2459.47	0.0009879
2469.11	0.001016
2478.75	0.0010443
2488.4	0.001027
2498.04	0.0011215
2507.69	0.0012105
2517.33	0.0012669
2526.98	0.0012594
2536.62	0.0015324
2546.27	0.001678
2555.91	0.001638
2565.56	0.001848
2575.2	0.002078
2584.85	0.002438
2594.49	0.002528
2604.14	0.002428
2613.78	0.001878
2623.43	0.0012947
2633.07	0.0010312
2642.72	0.0011204
2652.36	0.0012499
2662.01	0.001377
2671.65	0.0015914
2681.29	0.001798
2690.94	0.001808
2700.58	0.002178
2710.23	0.002458
2719.87	0.002888
2729.52	0.003458
2739.16	0.003868
2748.81	0.003408
2758.45	0.002908
2768.1	0.002508
2777.74	0.002528
2787.39	0.002508
2797.03	0.002578
2806.68	0.002258
2816.32	0.001938
2825.97	0.001748
2835.61	0.001978
2845.26	0.001998
2854.9	0.002268
2864.55	0.002908
2874.19	0.003228
2883.84	0.003218
2893.48	0.002328
2903.12	0.002018
2912.77	0.002498
2922.41	0.004318
2932.06	0.007448
2941.7	0.007928
2951.35	0.007268
2960.99	0.004188
2970.64	0.002668
2980.28	0.001728
2989.93	0.0012085
2999.57	0.0013367
3009.22	0.0013934
3018.86	0.001798
3028.51	0.002128
3038.15	0.003228
3047.8	0.003168
3057.44	0.003018
3067.09	0.0012463
3076.73	0.00060824
3086.38	0.0005342
3096.02	0.000467
3105.67	0.000308
3115.31	0.000334
3124.95	0.000255
3134.6	0.00046
3144.24	0.000345
3153.89	0.000547
3163.53	0.000249
3173.18	0.000302
3182.82	0.0001
3192.47	0.000138
3202.11	0.00019
3211.76	5.6e-05
3221.4	0.000189
3231.05	0.000317
3240.69	0.00047
3250.34	0.0007464
3259.98	0.0010646
3269.63	0.001798
3279.27	0.003448
3288.92	0.005248
3298.56	0.010078
3308.21	0.012938
3317.85	0.022178
3327.49	0.019328
3337.14	0.020278
3346.78	0.007678
3356.43	0.003388
3366.07	0.001472
3375.72	0.0008318
3385.36	0.0005781
3395.01	0.0006559
3404.65	0.00063095
3414.3	0.000295
3423.94	0.00029
3433.59	0.000381
3443.23	0.000293
3452.88	0.000442
3462.52	0.000431
3472.17	0.000331
3481.81	0.000367
3491.46	0.000346
3501.1	0.000387
3510.75	0.000306
3520.39	0.000177
3530.04	0.00031
3539.68	0.000401
3549.32	0.000236
3558.97	0.000349
3568.61	0.000291
3578.26	0.000179
3587.9	0.000159
3597.55	0.000288
3607.19	0.000338
3616.84	0.000208
3626.48	0.000394
3636.13	0.000187
3645.77	0.000211
3655.42	0.000236
3665.06	0.000335
3674.71	0.000449
3684.35	0.000467
3694	0.000358
3703.64	0.000177
3713.29	0.000262
3722.93	0.000425
3732.58	0.000283
3742.22	0.000367
3751.86	0.000205
3761.51	0.000296
3771.15	0.000487
3780.8	0.000398
3790.44	0.00064317
3800.09	0.000374
3809.73	0.0007293
3819.38	0.000506
3829.02	0.0006688
3838.67	0.000574
3848.31	0.0005385
3857.96	0.0007231
3867.6	0.0005974
3877.25	0.0009209
3886.89	0.0009366
3896.54	0.0007907
3906.18	0.0007395
3915.83	0.0008487
3925.47	0.0013189
3935.12	0.0013112
3944.76	0.0013371
3954.41	0.001342
3964.05	0.001688
3973.69	0.0014628
3983.34	0.0015796
3992.98	0.0016028
