Infrared Spectrum: ISOBUTYRAMIDE
Formula: C4 H9 N O
CAS: 563-83-7
State: SOLID (SPLIT MULL)
Class: COBLENTZ II
Instrument: BECKMAN IR-9 (GRATING)
Instrument parameters: ORDER CHANGES: 670, 1200, 2000 CM^-^1
Sampling: TRANSMISSION
Resolution: 2
Origin: DOW CHEMICAL COMPANY
1/CM	TRANSMITTANCE
402	0.6588
411	0.6649
420	0.7096
429	0.7593
438	0.8034
447	0.838
456	0.8678
465	0.8957
474	0.9142
483	0.916
492	0.904
501	0.8457
510	0.521
519	0.7528
528	0.8563
537	0.8714
546	0.8725
555	0.8593
564	0.8396
573	0.8103
582	0.7897
591	0.7561
600	0.7164
609	0.6668
618	0.6056
627	0.4224
636	0.4588
645	0.421
654	0.3914
663	0.3962
672	0.4503
681	0.5271
690	0.5648
699	0.5705
708	0.5609
717	0.5885
726	0.628
735	0.6799
744	0.6641
753	0.6693
762	0.7242
771	0.7688
780	0.7445
789	0.6312
798	0.8183
807	0.8218
816	0.8034
825	0.7571
834	0.7224
843	0.7208
852	0.7683
861	0.8164
870	0.8443
879	0.8618
888	0.8649
897	0.8621
906	0.8487
915	0.7626
924	0.8146
933	0.8362
942	0.851
951	0.8574
960	0.8518
969	0.8508
978	0.859
987	0.868
996	0.8711
1005	0.8706
1014	0.8682
1023	0.8628
1032	0.8568
1041	0.851
1050	0.8428
1059	0.83
1068	0.8099
1077	0.7403
1086	0.5924
1095	0.6749
1104	0.7506
1113	0.7883
1122	0.7658
1131	0.6843
1140	0.475
1149	0.3197
1158	0.7158
1167	0.6258
1176	0.7396
1185	0.811
1194	0.8196
1203	0.8153
1212	0.8078
1221	0.7961
1230	0.7845
1239	0.7678
1248	0.7447
1257	0.7086
1266	0.6595
1275	0.5862
1284	0.4536
1293	0.1525
1302	0.4462
1311	0.5628
1320	0.5986
1329	0.5864
1338	0.4032
1347	0.3176
1356	0.3312
1365	0.3668
1374	0.3334
1383	0.4333
1392	0.4034
1401	0.3849
1410	0.3618
1419	0.2896
1428	0.1954
1437	0.3195
1446	0.4352
1455	0.3886
1464	0.4612
1473	0.2072
1482	0.4949
1491	0.5414
1500	0.5615
1509	0.5695
1518	0.5714
1527	0.5679
1536	0.5579
1545	0.5454
1554	0.5294
1563	0.506
1572	0.4893
1581	0.4593
1590	0.4072
1599	0.3147
1608	0.2269
1617	0.1578
1626	0.079
1635	0.0483
1644	0.0423
1653	0.052
1662	0.0752
1671	0.098
1680	0.1548
1689	0.2884
1698	0.4194
1707	0.5458
1716	0.6226
1725	0.6775
1734	0.724
1743	0.7517
1752	0.7749
1761	0.7889
1770	0.7938
1779	0.8038
1788	0.8232
1797	0.8325
1806	0.8434
1815	0.8523
1824	0.8613
1833	0.8682
1842	0.8718
1851	0.8721
1860	0.8704
1869	0.8653
1878	0.8668
1887	0.8721
1896	0.8742
1905	0.8753
1914	0.8756
1923	0.8734
1932	0.866
1941	0.8686
1950	0.872
1959	0.8751
1968	0.8764
1977	0.8753
1986	0.8733
1995	0.8696
2004	0.8643
2013	0.861
2022	0.8575
2031	0.8542
2040	0.8509
2049	0.8475
2058	0.8443
2067	0.8409
2076	0.8375
2085	0.8342
2094	0.8309
2103	0.8275
2112	0.8241
2121	0.8204
2130	0.8171
2139	0.8144
2148	0.8119
2157	0.8098
2166	0.7996
2175	0.7904
2184	0.7828
2193	0.7826
2202	0.783
2211	0.7824
2220	0.7775
2229	0.7701
2238	0.7621
2247	0.7533
2256	0.7443
2265	0.7357
2274	0.7272
2283	0.7193
2292	0.713
2301	0.7093
2310	0.7119
2319	0.7155
2328	0.7186
2337	0.7225
2346	0.7268
2355	0.7307
2364	0.7344
2373	0.7361
2382	0.7304
2391	0.7265
2400	0.7304
2409	0.7364
2418	0.7439
2427	0.7442
2436	0.7428
2445	0.74
2454	0.7382
2463	0.7391
2472	0.743
2481	0.7478
2490	0.7537
2499	0.759
2508	0.7624
2517	0.7638
2526	0.7647
2535	0.7655
2544	0.7655
2553	0.764
2562	0.761
2571	0.758
2580	0.7556
2589	0.7538
2598	0.7524
2607	0.7519
2616	0.7503
2625	0.748
2634	0.7455
2643	0.7417
2652	0.7378
2661	0.7337
2670	0.7297
2679	0.7255
2688	0.7208
2697	0.7151
2706	0.7086
2715	0.7018
2724	0.695
2733	0.6881
2742	0.6805
2751	0.6678
2760	0.6542
2769	0.6442
2778	0.6428
2787	0.645
2796	0.6328
2805	0.6093
2814	0.5802
2823	0.5781
2832	0.5925
2841	0.6034
2850	0.6057
2859	0.5879
2868	0.5036
2877	0.5058
2886	0.521
2895	0.5378
2904	0.5224
2913	0.4825
2922	0.4759
2931	0.4008
2940	0.3618
2949	0.4619
2958	0.3107
2967	0.153
2976	0.1474
2985	0.5641
2994	0.6264
3003	0.6307
3012	0.6249
3021	0.6136
3030	0.5994
3039	0.5847
3048	0.5629
3057	0.5404
3066	0.5178
3075	0.4943
3084	0.4686
3093	0.4416
3102	0.4124
3111	0.3844
3120	0.3536
3129	0.3166
3138	0.2776
3147	0.2384
3156	0.1981
3165	0.1682
3174	0.1398
3183	0.1346
3192	0.1378
3201	0.1463
3210	0.1583
3219	0.1741
3228	0.1981
3237	0.2269
3246	0.2503
3255	0.2574
3264	0.256
3273	0.2479
3282	0.238
3291	0.2261
3300	0.213
3309	0.1992
3318	0.1819
3327	0.1606
3336	0.1371
3345	0.1131
3354	0.0901
3363	0.0733
3372	0.0728
3381	0.0833
3390	0.1349
3399	0.222
3408	0.3071
3417	0.3793
3426	0.4532
3435	0.5496
3444	0.6557
3453	0.6934
3462	0.7228
3471	0.7528
3480	0.7761
3489	0.7876
3498	0.7975
3507	0.8068
3516	0.8101
3525	0.8135
3534	0.815
3543	0.815
3552	0.8148
3561	0.8149
3570	0.8139
3579	0.8118
3588	0.8094
3597	0.7888
3606	0.7992
3615	0.8089
3624	0.8104
3633	0.8115
3642	0.8128
3651	0.8136
3660	0.8137
3669	0.8138
3678	0.8132
3687	0.8118
3696	0.81
3705	0.8074
3714	0.8049
3723	0.8025
3732	0.8005
3741	0.7992
3750	0.798
3759	0.7969
3768	0.7961
3777	0.7953
3786	0.795
3795	0.7948
3804	0.7943
3813	0.7936
