Infrared Spectrum: METHYL ALCOHOL
Formula: C H4 O
CAS: 67-56-1
State: GAS (VAPOR)
Class: COBLENTZ
Instrument: PERKIN-ELMER 21 (GRATING)
Sampling: TRANSMISSION
Path length: 10 CM
Resolution: 4
MICROMETERS	TRANSMITTANCE
2.003	0.749
2.03624	0.749
2.06948	0.748
2.10272	0.75
2.13596	0.759
2.1692	0.76
2.20244	0.762
2.23568	0.766
2.26892	0.771
2.30216	0.771
2.3354	0.764
2.36864	0.764
2.40188	0.769
2.43512	0.775
2.46836	0.778
2.5016	0.779
2.53484	0.778
2.56808	0.779
2.60132	0.777
2.63456	0.778
2.6678	0.779
2.70104	0.773
2.73428	0.662
2.76751	0.637
2.80075	0.749
2.83399	0.771
2.86723	0.785
2.90047	0.789
2.93371	0.793
2.96695	0.798
3.00019	0.802
3.03343	0.8
3.06667	0.802
3.09991	0.804
3.13315	0.804
3.16639	0.802
3.19963	0.802
3.23287	0.799
3.26611	0.753
3.29935	0.656
3.33259	0.539
3.36583	0.418
3.39907	0.361
3.43231	0.359
3.46555	0.441
3.49879	0.498
3.53203	0.517
3.56527	0.567
3.59851	0.721
3.63175	0.768
3.66499	0.785
3.69823	0.8
3.73147	0.803
3.76471	0.809
3.79795	0.812
3.83119	0.815
3.86443	0.817
3.89767	0.818
3.93091	0.822
3.96415	0.824
3.99739	0.829
4.03063	0.828
4.06387	0.829
4.09711	0.83
4.13035	0.83
4.16359	0.828
4.19683	0.828
4.23007	0.83
4.26331	0.839
4.29654	0.842
4.32978	0.847
4.36302	0.843
4.39626	0.837
4.4295	0.837
4.46274	0.836
4.49598	0.836
4.52922	0.833
4.56246	0.831
4.5957	0.834
4.62894	0.836
4.66218	0.835
4.69542	0.835
4.72866	0.83
4.7619	0.831
4.79514	0.827
4.82838	0.805
4.86162	0.816
4.89486	0.817
4.9281	0.821
4.96134	0.827
4.99458	0.83
5.02782	0.834
5.06106	0.84
5.0943	0.84
5.12754	0.841
5.16078	0.841
5.19402	0.839
5.22726	0.841
5.2605	0.84
5.29374	0.841
5.32698	0.84
5.36022	0.841
5.39346	0.84
5.4267	0.84
5.45994	0.841
5.49318	0.842
5.52642	0.842
5.55966	0.842
5.5929	0.845
5.62614	0.843
5.65938	0.843
5.69262	0.842
5.72586	0.842
5.7591	0.842
5.79234	0.841
5.82557	0.839
5.85881	0.842
5.89205	0.843
5.92529	0.843
5.95853	0.843
5.99177	0.842
6.02501	0.841
6.05825	0.842
6.09149	0.843
6.12473	0.842
6.15797	0.839
6.19121	0.837
6.22445	0.836
6.25769	0.831
6.29093	0.829
6.32417	0.83
6.35741	0.83
6.39065	0.827
6.42389	0.827
6.45713	0.82
6.49037	0.818
6.52361	0.811
6.55685	0.809
6.59009	0.806
6.62333	0.802
6.65657	0.8
6.68981	0.792
6.72305	0.787
6.75629	0.767
6.78953	0.755
6.82277	0.761
6.85601	0.762
6.88925	0.73
6.92249	0.786
6.95573	0.771
6.98897	0.762
7.02221	0.754
7.05545	0.75
7.08869	0.735
7.12193	0.737
7.15517	0.722
7.18841	0.721
7.22165	0.717
7.25489	0.71
7.28813	0.699
7.32136	0.7
7.3546	0.696
7.38784	0.69
7.42108	0.686
7.45432	0.688
7.48756	0.705
7.5208	0.687
7.55404	0.694
7.58728	0.687
7.62052	0.704
7.65376	0.712
7.687	0.722
7.72024	0.733
7.75348	0.74
7.78672	0.753
7.81996	0.761
7.8532	0.762
7.88644	0.765
7.91968	0.766
7.95292	0.762
7.98616	0.761
8.0194	0.766
8.05264	0.771
8.08588	0.775
8.11912	0.777
8.15236	0.779
8.1856	0.778
8.21884	0.78
8.25208	0.781
8.28532	0.78
8.31856	0.785
8.3518	0.791
8.38504	0.802
8.41828	0.805
8.45152	0.808
8.48476	0.812
8.518	0.815
8.55124	0.817
8.58448	0.818
8.61772	0.818
8.65096	0.818
8.6842	0.815
8.71744	0.815
8.75068	0.811
8.78392	0.809
8.81716	0.806
8.85039	0.808
8.88363	0.806
8.91687	0.805
8.95011	0.803
8.98335	0.797
9.01659	0.786
9.04983	0.785
9.08307	0.78
9.11631	0.779
9.14955	0.777
9.18279	0.771
9.21603	0.767
9.24927	0.735
9.28251	0.672
9.31575	0.585
9.34899	0.431
9.38223	0.309
9.41547	0.21
9.44871	0.151
9.48195	0.123
9.51519	0.116
9.54843	0.15
9.58167	0.22
9.61491	0.33
9.64815	0.455
9.68139	0.331
9.71463	0.21
9.74787	0.392
9.78111	0.373
9.81435	0.303
9.84759	0.251
9.88083	0.237
9.91407	0.23
9.94731	0.243
9.98055	0.261
10.0138	0.317
10.047	0.338
10.0803	0.387
10.1135	0.452
10.1467	0.505
10.18	0.562
10.2132	0.607
10.2465	0.654
10.2797	0.703
10.3129	0.728
10.3462	0.75
10.3794	0.775
10.4127	0.789
10.4459	0.804
10.4791	0.812
10.5124	0.82
10.5456	0.829
10.5789	0.83
10.6121	0.833
10.6453	0.834
10.6786	0.835
10.7118	0.837
10.7451	0.836
10.7783	0.839
10.8115	0.84
10.8448	0.839
10.878	0.839
10.9113	0.839
10.9445	0.841
10.9777	0.843
11.011	0.845
11.0442	0.845
11.0775	0.846
11.1107	0.845
11.1439	0.843
11.1772	0.841
11.2104	0.842
11.2437	0.845
11.2769	0.845
11.3101	0.843
11.3434	0.845
11.3766	0.843
11.4099	0.842
11.4431	0.84
11.4763	0.839
11.5096	0.841
11.5428	0.845
11.5761	0.843
11.6093	0.845
11.6425	0.847
11.6758	0.848
11.709	0.848
11.7423	0.851
11.7755	0.849
11.8087	0.851
11.842	0.848
11.8752	0.845
11.9085	0.845
11.9417	0.849
11.9749	0.847
12.0082	0.848
12.0414	0.849
12.0747	0.849
12.1079	0.849
12.1411	0.851
12.1744	0.848
12.2076	0.848
12.2409	0.843
12.2741	0.843
12.3073	0.845
12.3406	0.852
12.3738	0.849
12.4071	0.846
12.4403	0.843
12.4735	0.843
12.5068	0.845
12.54	0.845
12.5733	0.845
12.6065	0.843
12.6397	0.842
12.673	0.843
12.7062	0.84
12.7394	0.843
12.7727	0.839
12.8059	0.84
12.8392	0.839
12.8724	0.834
12.9056	0.834
12.9389	0.835
12.9721	0.839
13.0054	0.84
13.0386	0.836
13.0718	0.837
13.1051	0.837
13.1383	0.834
13.1716	0.834
13.2048	0.834
13.238	0.83
13.2713	0.833
13.3045	0.829
13.3378	0.828
13.371	0.828
13.4042	0.827
13.4375	0.825
13.4707	0.825
13.504	0.825
13.5372	0.823
13.5704	0.824
13.6037	0.815
13.6369	0.808
13.6702	0.811
13.7034	0.812
13.7366	0.812
13.7699	0.812
13.8031	0.811
13.8364	0.809
13.8696	0.808
13.9028	0.805
13.9361	0.804
13.9693	0.804
14.0026	0.803
14.0358	0.8
14.069	0.796
14.1023	0.794
14.1355	0.793
14.1688	0.789
14.202	0.785
14.2352	0.785
14.2685	0.785
14.3017	0.781
14.335	0.778
14.3682	0.777
14.4014	0.773
14.4347	0.766
14.4679	0.762
14.5012	0.761
14.5344	0.759
14.5676	0.756
14.6009	0.758
14.6341	0.756
14.6674	0.754
14.7006	0.752
14.7338	0.748
14.7671	0.746
14.8003	0.741
14.8336	0.736
14.8668	0.735
14.9	0.733
14.9333	0.731
14.9665	0.728
14.9998	0.727
