Infrared Spectrum: 1,2-Butadiene
Formula: C 4 H 6
CAS: 590-19-2
State: gas
Instrument: HP-GC/MS/IRD
Origin: NIST Mass Spectrometry Data Center
1/CM	ABSORBANCE
550	0.0024282
562	0.002448
574	0.0018936
586	0.001116
598	0.0006804
610	0.0005562
622	0.0005166
634	0.000378
646	0.0002664
658	0.0001188
670	0.000297
682	0.000216
694	0.0001512
706	0.0001926
718	0.0001368
730	0.0001692
742	0.000252
754	0.00054
766	0.0009432
778	0.0017028
790	0.0031392
802	0.0052092
814	0.0081846
826	0.0119844
838	0.014283
850	0.0153774
862	0.01701
874	0.0129798
886	0.0095202
898	0.0056556
910	0.0030042
922	0.0014202
934	0.0006912
946	0.0003366
958	0.0002592
970	0.0003294
982	0.0004428
994	0.0006048
1006	0.0007488
1018	0.0007578
1030	0.0010116
1042	0.0011628
1054	0.001242
1066	0.0011988
1078	0.0011142
1090	0.0011808
1102	0.0009522
1114	0.0007722
1126	0.000585
1138	0.0004752
1150	0.000387
1162	0.0004428
1174	0.000333
1186	0.0001836
1198	0.0001998
1210	0.0001368
1222	2.7e-05
1234	9e-06
1246	0.0001242
1258	0.0003114
1270	0.0004482
1282	0.0006138
1294	0.0009612
1306	0.0018882
1318	0.0029286
1330	0.0031032
1342	0.00351
1354	0.0026208
1366	0.0024084
1378	0.0024912
1390	0.0030024
1402	0.0030366
1414	0.0032652
1426	0.0040194
1438	0.0038016
1450	0.003834
1462	0.002907
1474	0.0017928
1486	0.0013842
1498	0.001152
1510	0.0009828
1522	0.0008964
1534	0.0008514
1546	0.0007488
1558	0.000738
1570	0.0005742
1582	0.0004842
1594	0.000414
1606	0.0003474
1618	0.0003222
1630	0.0002466
1642	0.0002448
1654	0.0004176
1666	0.0006372
1678	0.0012456
1690	0.0017802
1702	0.0019818
1714	0.0017658
1726	0.0011142
1738	0.0005292
1750	0.0002196
1762	0.0001116
1774	6.48e-05
1786	2.88e-05
1798	0
1810	4.68e-05
1822	3.6e-05
1834	4.86e-05
1846	0.0001206
1858	0.0001764
1870	0.0003582
1882	0.0005598
1894	0.0008388
1906	0.0016038
1918	0.0031068
1930	0.0056052
1942	0.0080838
1954	0.009144
1966	0.0083052
1978	0.0055206
1990	0.0023598
2002	0.0010422
2014	0.000648
2026	0.000342
2038	0.0001476
2050	0.0001188
2062	9.54e-05
2074	7.02e-05
2086	6.66e-05
2098	7.2e-05
2110	3.6e-05
2122	1.98e-05
2134	1.08e-05
2146	4.14e-05
2158	1.98e-05
2170	1.26e-05
2182	9e-06
2194	3.78e-05
2206	1.98e-05
2218	5.58e-05
2230	5.58e-05
2242	9.54e-05
2254	5.4e-05
2266	3.96e-05
2278	3.06e-05
2290	3.24e-05
2302	3.78e-05
2314	3.6e-06
2326	6.66e-05
2338	9.9e-05
2350	5.94e-05
2362	9.54e-05
2374	7.92e-05
2386	9.54e-05
2398	0.000108
2410	9.54e-05
2422	0.0001458
2434	0.0001908
2446	0.0001692
2458	0.0001944
2470	0.00018
2482	0.0001422
2494	0.0001674
2506	0.0001746
2518	0.0001062
2530	0.0001314
2542	0.0001098
2554	7.38e-05
2566	7.38e-05
2578	7.56e-05
2590	3.78e-05
2602	5.04e-05
2614	4.14e-05
2626	6.12e-05
2638	7.92e-05
2650	0.0001116
2662	6.84e-05
2674	0.0001026
2686	6.66e-05
2698	0.0001296
2710	0.0002556
2722	0.0004662
2734	0.0005094
2746	0.0006048
2758	0.0005094
2770	0.0004806
2782	0.0005994
2794	0.000657
2806	0.0008748
2818	0.0010764
2830	0.0013356
2842	0.0018234
2854	0.0030024
2866	0.0049356
2878	0.0054036
2890	0.0064674
2902	0.0070668
2914	0.0085896
2926	0.0106182
2938	0.0101358
2950	0.0103032
2962	0.0083322
2974	0.007326
2986	0.0086508
2998	0.0082242
3010	0.0078606
3022	0.0062676
3034	0.004338
3046	0.003645
3058	0.0033732
3070	0.0032364
3082	0.0026208
3094	0.0021924
3106	0.001656
3118	0.0012276
3130	0.0007884
3142	0.0005238
3154	0.0003438
3166	0.000297
3178	0.0002268
3190	0.0002106
3202	0.0001764
3214	0.0001278
3226	0.0001062
3238	0.0001512
3250	0.0001242
3262	0.0001278
3274	0.0001818
3286	0.000144
3298	0.000171
3310	0.0001296
3322	0.0001062
3334	6.66e-05
3346	6.84e-05
3358	7.2e-05
3370	0.000108
3382	8.82e-05
3394	0.0001116
3406	0.000117
3418	0.0001458
3430	9e-05
3442	7.92e-05
3454	0.0001098
3466	0.000117
3478	9.18e-05
3490	0.0001152
3502	7.38e-05
3514	5.04e-05
3526	8.28e-05
3538	5.4e-05
3550	0.0001278
3562	7.2e-05
3574	1.8e-06
3586	7.38e-05
3598	9.36e-05
3610	7.2e-05
3622	0.0001368
3634	0.0001404
3646	9.54e-05
3658	5.22e-05
3670	0.0001098
3682	3.6e-05
3694	0.000126
3706	1.62e-05
3718	8.82e-05
3730	7.56e-05
3742	0.0001296
3754	0.0001368
3766	5.22e-05
3778	0.000135
3790	0.0001152
3802	0.0001278
3814	9e-05
3826	0.0001422
3838	0.0002214
