Infrared Spectrum: Pyridazine
Formula: C4 H4 N2
CAS: 289-80-5
State: LIQUID (NEAT)
Class: COBLENTZ
Instrument: BECKMAN IR-9 (GRATING)
Instrument parameters: ORDER CHANGES: 670, 1200, 2000 CM^-^1
Sampling: TRANSMISSION
Path length: CAPILLARY
Resolution: 2
Origin: DOW CHEMICAL COMPANY
1/CM	TRANSMITTANCE
3814	0.8882
3805	0.8875
3796	0.8868
3787	0.8848
3778	0.8827
3769	0.8787
3760	0.8765
3751	0.8758
3742	0.8766
3733	0.8786
3724	0.878
3715	0.8781
3706	0.8755
3697	0.869
3688	0.8641
3679	0.8577
3670	0.8471
3661	0.8365
3652	0.8254
3643	0.8141
3634	0.8034
3625	0.7939
3616	0.7845
3607	0.776
3598	0.7675
3589	0.7584
3580	0.7491
3571	0.7391
3562	0.7292
3553	0.7194
3544	0.7099
3535	0.6987
3526	0.6886
3517	0.679
3508	0.6674
3499	0.6535
3490	0.648
3481	0.6436
3472	0.6395
3463	0.6365
3454	0.6356
3445	0.6374
3436	0.64
3427	0.6435
3418	0.6478
3409	0.6553
3400	0.6632
3391	0.6712
3382	0.6801
3373	0.69
3364	0.6997
3355	0.7094
3346	0.7189
3337	0.7258
3328	0.7328
3319	0.7397
3310	0.7467
3301	0.7536
3292	0.7599
3283	0.7651
3274	0.7704
3265	0.7744
3256	0.7783
3247	0.7818
3238	0.7851
3229	0.7875
3220	0.7883
3211	0.7886
3202	0.7898
3193	0.7907
3184	0.7898
3175	0.7849
3166	0.7778
3157	0.7582
3148	0.7525
3139	0.7605
3130	0.764
3121	0.7614
3112	0.7532
3103	0.7318
3094	0.7071
3085	0.6593
3076	0.5688
3067	0.5321
3058	0.5378
3049	0.6171
3040	0.7161
3031	0.7476
3022	0.7645
3013	0.7778
3004	0.7815
2995	0.779
2986	0.7601
2977	0.7558
2968	0.7565
2959	0.7778
2950	0.7892
2941	0.795
2932	0.8101
2923	0.8252
2914	0.8378
2905	0.8445
2896	0.8421
2887	0.8381
2878	0.8404
2869	0.8458
2860	0.8538
2851	0.8621
2842	0.8702
2833	0.8764
2824	0.8797
2815	0.8815
2806	0.883
2797	0.8886
2788	0.8946
2779	0.8974
2770	0.8987
2761	0.8975
2752	0.8949
2743	0.8946
2734	0.8966
2725	0.9001
2716	0.9027
2707	0.9052
2698	0.907
2689	0.9078
2680	0.9084
2671	0.9088
2662	0.9094
2653	0.9094
2644	0.9083
2635	0.9051
2626	0.9012
2617	0.8977
2608	0.8974
2599	0.9063
2590	0.9085
2581	0.9099
2572	0.9102
2563	0.9105
2554	0.9107
2545	0.911
2536	0.9112
2527	0.9115
2518	0.9118
2509	0.912
2500	0.9114
2491	0.9068
2482	0.9008
2473	0.9021
2464	0.9078
2455	0.9095
2446	0.9093
2437	0.9104
2428	0.9142
2419	0.9191
2410	0.9192
2401	0.9185
2392	0.9225
2383	0.9256
2374	0.926
2365	0.9212
2356	0.915
2347	0.9088
2338	0.902
2329	0.8939
2320	0.8855
2311	0.8862
2302	0.8909
2293	0.8937
2284	0.8915
2275	0.8942
2266	0.9006
2257	0.9048
2248	0.9054
2239	0.9002
2230	0.897
2221	0.8963
2212	0.9005
2203	0.9051
2194	0.9077
2185	0.9074
2176	0.9067
2167	0.9065
2158	0.9055
2149	0.9016
2140	0.8902
2131	0.8763
2122	0.8766
2113	0.8921
2104	0.9002
2095	0.9014
2086	0.9023
2077	0.9005
2068	0.8953
2059	0.8956
2050	0.8935
2041	0.8899
2032	0.879
2023	0.8736
2014	0.8768
2005	0.8746
1996	0.8607
1987	0.8575
1978	0.8565
1969	0.8605
1960	0.8628
1951	0.8659
1942	0.8628
1933	0.8659
1924	0.8625
1915	0.8624
1906	0.869
1897	0.8789
1888	0.8881
1879	0.8945
1870	0.9002
1861	0.9042
1852	0.9068
1843	0.9087
1834	0.9063
1825	0.9032
1816	0.9024
1807	0.9025
1798	0.9025
1789	0.9018
1780	0.8999
1771	0.8975
1762	0.8944
1753	0.891
1744	0.8841
1735	0.8725
1726	0.8616
1717	0.8609
1708	0.8568
1699	0.8464
1690	0.8377
1681	0.8268
1672	0.8074
1663	0.8118
1654	0.8175
1645	0.8239
1636	0.8297
1627	0.8339
1618	0.8418
1609	0.8445
1600	0.8412
1591	0.8231
1582	0.7611
1573	0.5305
1564	0.3078
1555	0.6112
1546	0.7996
1537	0.843
1528	0.8552
1519	0.8635
1510	0.8696
1501	0.872
1492	0.8717
1483	0.8686
1474	0.8591
1465	0.8428
1456	0.8241
1447	0.7424
1438	0.6248
1429	0.7765
1420	0.6821
1411	0.0525
1402	0.5485
1393	0.7121
1384	0.6971
1375	0.7687
1366	0.8203
1357	0.8455
1348	0.8518
1339	0.8489
1330	0.8468
1321	0.8518
1312	0.8527
1303	0.8405
1294	0.7872
1285	0.6066
1276	0.6693
1267	0.8041
1258	0.8557
1249	0.8658
1240	0.8677
1231	0.8682
1222	0.8697
1213	0.866
1204	0.8658
1195	0.8571
1186	0.8518
1177	0.8384
1168	0.8095
1159	0.7656
1150	0.7869
1141	0.7872
1132	0.7838
1123	0.7944
1114	0.7987
1105	0.8184
1096	0.8126
1087	0.8098
1078	0.7775
1069	0.7071
1060	0.2699
1051	0.6375
1042	0.7621
1033	0.7989
1024	0.8168
1015	0.8191
1006	0.824
997	0.8227
988	0.8025
979	0.7638
970	0.5912
961	0.1524
952	0.6651
943	0.8131
934	0.8407
925	0.8578
916	0.8686
907	0.8712
898	0.8783
889	0.8798
880	0.8801
871	0.8786
862	0.8746
853	0.8699
844	0.8678
835	0.8578
826	0.8495
817	0.8364
808	0.815
799	0.7814
790	0.7133
781	0.5588
772	0.3139
763	0.0771
754	0.0776
745	0.3298
736	0.685
727	0.7508
718	0.7838
709	0.7937
700	0.7905
691	0.7967
682	0.7908
673	0.7578
664	0.3587
655	0.7735
646	0.8021
637	0.8024
628	0.7917
619	0.7799
610	0.8062
601	0.8071
592	0.8025
583	0.7991
574	0.7967
565	0.7942
556	0.7918
547	0.7905
538	0.7918
529	0.7922
520	0.7915
511	0.7903
502	0.7889
493	0.7853
484	0.7762
475	0.7651
466	0.7483
457	0.7306
448	0.7044
439	0.681
430	0.6568
421	0.6212
