Infrared Spectrum: 1-Butyne
Formula: C 4 H 6
CAS: 107-00-6
State: gas
Instrument: HP-GC/MS/IRD
Origin: NIST Mass Spectrometry Data Center
1/CM	ABSORBANCE
550	0.0013832
562	0.0010647
574	0.0013832
586	0.0023387
598	0.0056056
610	0.0174538
622	0.0440713
634	0.091
646	0.0526981
658	0.0203203
670	0.005915
682	0.0020566
694	0.001092
706	0.0007189
718	0.0004459
730	0.0003003
742	0.0001911
754	0.0002821
766	0.0002821
778	0.0002821
790	0.0002912
802	0.0003276
814	0.0002639
826	0.0002821
838	0.0002912
850	0.0002912
862	0.0002821
874	0.0002457
886	0.000182
898	0.0001001
910	0.0001183
922	0.0001183
934	0.0001638
946	0.0001092
958	0.0001638
970	0.0001911
982	0.0003276
994	0.0004459
1006	0.0004732
1018	0.0005187
1030	0.0005733
1042	0.001001
1054	0.00182
1066	0.0020657
1078	0.0024388
1090	0.002002
1102	0.0011921
1114	0.0008827
1126	0.0006188
1138	0.0005369
1150	0.0004368
1162	0.0003003
1174	0.0002912
1186	0.0003367
1198	0.0005915
1210	0.001183
1222	0.0042679
1234	0.0129402
1246	0.0132405
1258	0.014833
1270	0.0121212
1282	0.0046774
1294	0.0037401
1306	0.0059787
1318	0.0053963
1330	0.0055692
1342	0.0034034
1354	0.0011011
1366	0.0010374
1378	0.0012012
1390	0.0016289
1402	0.0022386
1414	0.0027755
1426	0.0037037
1438	0.0042679
1450	0.0047138
1462	0.0055874
1474	0.0036127
1486	0.0031213
1498	0.0021931
1510	0.001456
1522	0.0009373
1534	0.0006188
1546	0.0004095
1558	0.0003185
1570	0.0002912
1582	0.0003276
1594	0.0003185
1606	0.0003367
1618	0.0002821
1630	0.0002639
1642	0.0002639
1654	0.000273
1666	0.0002366
1678	0.0002093
1690	0.0001365
1702	8.19e-05
1714	4.55e-05
1726	1.82e-05
1738	3.64e-05
1750	2.73e-05
1762	3.64e-05
1774	3.64e-05
1786	6.37e-05
1798	6.37e-05
1810	3.64e-05
1822	4.55e-05
1834	7.28e-05
1846	0.0001274
1858	0.0001092
1870	0.0001365
1882	0.0001729
1894	0.0001638
1906	0.0001001
1918	8.19e-05
1930	5.46e-05
1942	2.73e-05
1954	2.73e-05
1966	9.1e-06
1978	1.82e-05
1990	2.73e-05
2002	9.1e-06
2014	5.46e-05
2026	9.1e-05
2038	0.0001547
2050	0.0001911
2062	0.0002548
2074	0.0004368
2086	0.0009009
2098	0.0017654
2110	0.0024024
2122	0.0025298
2134	0.0023387
2146	0.0012103
2158	0.0005096
2170	0.0004368
2182	0.0002639
2194	0.0001547
2206	0.0001183
2218	0.0001365
2230	0.0001638
2242	0.0001365
2254	0.0001365
2266	0.0001001
2278	0.0001001
2290	8.19e-05
2302	0.0001001
2314	0.0001456
2326	0.0001001
2338	9.1e-05
2350	9.1e-05
2362	0.0001365
2374	0.0002002
2386	0.0002275
2398	0.0002093
2410	0.0001365
2422	0.0001001
2434	0.0001183
2446	9.1e-05
2458	0.0001456
2470	0.0001365
2482	0.0001547
2494	0.0002093
2506	0.0001638
2518	0.0001638
2530	0.000182
2542	0.0001365
2554	0.0001183
2566	0.0001183
2578	0.0001365
2590	0.0002002
2602	0.0002548
2614	0.0003731
2626	0.0003367
2638	0.0003731
2650	0.0003458
2662	0.0002912
2674	0.0003913
2686	0.0004641
2698	0.0006461
2710	0.0004641
2722	0.000455
2734	0.0006734
2746	0.0007917
2758	0.0008463
2770	0.0008463
2782	0.0008463
2794	0.0009009
2806	0.0011739
2818	0.0015015
2830	0.0021203
2842	0.0029666
2854	0.0039858
2866	0.0053599
2878	0.009191
2890	0.0104195
2902	0.0129857
2914	0.0141778
2926	0.0161798
2938	0.0220675
2950	0.0223496
2962	0.026299
2974	0.0268723
2986	0.0235872
2998	0.0218309
3010	0.0149604
3022	0.0087542
3034	0.0051142
3046	0.0028574
3058	0.0016471
3070	0.0011921
3082	0.0010374
3094	0.00091
3106	0.0009555
3118	0.0009646
3130	0.0009646
3142	0.0009191
3154	0.0009282
3166	0.0009555
3178	0.0010283
3190	0.0010556
3202	0.0008281
3214	0.0006552
3226	0.0005369
3238	0.0006461
3250	0.0010556
3262	0.0017745
3274	0.0034216
3286	0.0065429
3298	0.0121849
3310	0.0211484
3322	0.0250159
3334	0.0199199
3346	0.0206297
3358	0.006279
3370	0.0025571
3382	0.0013013
3394	0.0005733
3406	0.0003458
3418	0.0002275
3430	0.0002457
3442	0.0002275
3454	0.0001547
3466	0.000182
3478	0.0002275
3490	0.0002821
3502	0.0003094
3514	0.000273
3526	0.0002366
3538	0.0001911
3550	0.0002002
3562	0.0001638
3574	0.0001365
3586	0.0001183
3598	0.0001638
3610	0.0001456
3622	0.0001456
3634	8.19e-05
3646	0.0001456
3658	0.0001365
3670	0.0002184
3682	0.0001638
3694	0.0002002
3706	0.0002275
3718	0.000182
3730	0.0002093
3742	0.0002548
3754	0.0002821
3766	0.0002639
3778	0.0002275
3790	0.0002639
3802	0.0002093
3814	0.0002093
3826	0.0001638
3838	0.0002002
