Infrared Spectrum: 1-BUTYNE
Formula: C4 H6
CAS: 107-00-6
State: GAS IN SOLUTION (CCl4 FOR 3800-1330, CS2 FOR 1330-450 CM^-^1)
Class: COBLENTZ III
Instrument: DOW KBr FOREPRISM-GRATING
Instrument parameters: BLAZED AT 3.5, 12.0, 20.0 MICRON, CHANGED AT 5.0, 7.5, 14.9 MICRON
Sampling: TRANSMISSION
Path length: 0.011, 0.012 CM
Resolution: 4
Origin: DOW CHEMICAL COMPANY
1/CM	TRANSMITTANCE
452.174	0.867
460.87	0.87
469.565	0.869
478.261	0.869
486.957	0.869
495.652	0.862
504.348	0.833
513.044	0.829
521.739	0.88
530.435	0.895
539.131	0.912
547.826	0.923
556.522	0.929
565.218	0.931
573.913	0.929
582.609	0.925
591.305	0.911
600	0.896
608.696	0.848
617.392	0.724
626.087	0.326
634.783	0.205
643.479	0.611
652.174	0.79
660.87	0.863
669.566	0.903
678.261	0.918
686.957	0.93
695.653	0.931
704.348	0.929
713.044	0.935
721.74	0.937
730.435	0.934
739.131	0.94
747.827	0.949
756.522	0.953
765.218	0.946
773.914	0.94
782.609	0.923
791.305	0.937
800.001	0.938
808.696	0.944
817.392	0.946
826.088	0.942
834.783	0.925
843.479	0.874
852.175	0.768
860.87	0.769
869.566	0.817
878.262	0.85
886.957	0.897
895.653	0.931
904.349	0.944
913.044	0.956
921.74	0.957
930.436	0.961
939.131	0.964
947.827	0.964
956.523	0.968
965.218	0.964
973.914	0.96
982.61	0.963
991.305	0.956
1000	0.952
1008.7	0.95
1017.39	0.946
1026.09	0.944
1034.78	0.942
1043.48	0.933
1052.17	0.926
1060.87	0.905
1069.57	0.855
1078.26	0.884
1086.96	0.9
1095.65	0.923
1104.35	0.925
1113.04	0.919
1121.74	0.911
1130.44	0.919
1139.13	0.919
1147.83	0.923
1156.52	0.934
1165.22	0.931
1173.91	0.929
1182.61	0.923
1191.31	0.937
1200	0.941
1208.7	0.942
1217.39	0.933
1226.09	0.919
1234.78	0.87
1243.48	0.81
1252.18	0.822
1260.87	0.859
1269.57	0.881
1278.26	0.897
1286.96	0.901
1295.65	0.901
1304.35	0.91
1313.04	0.891
1321.74	0.826
1330.44	0.918
1339.13	0.95
1347.83	0.953
1356.52	0.959
1365.22	0.964
1373.91	0.916
1382.61	0.856
1391.31	0.93
1400	0.949
1408.7	0.931
1417.39	0.9
1426.09	0.852
1434.78	0.768
1443.48	0.737
1452.18	0.689
1460.87	0.667
1469.57	0.707
1478.26	0.852
1486.96	0.859
1495.65	0.843
1504.35	0.798
1513.05	0.745
1521.74	0.673
1530.44	0.66
1539.13	0.583
1547.83	0.504
1556.52	0.51
1565.22	0.587
1573.91	0.667
1582.61	0.692
1591.31	0.737
1600	0.816
1608.7	0.899
1617.39	0.949
1626.09	0.972
1634.78	0.991
1643.48	1
1652.18	1.008
1660.87	0.991
1669.57	0.989
1678.26	0.978
1686.96	0.98
1695.65	0.979
1704.35	0.975
1713.05	0.964
1721.74	0.956
1730.44	0.957
1739.13	0.957
1747.83	0.965
1756.52	0.978
1765.22	0.982
1773.91	0.982
1782.61	0.982
1791.31	0.982
1800	0.982
1808.7	0.98
1817.39	0.979
1826.09	0.974
1834.78	0.975
1843.48	0.985
1852.18	0.976
1860.87	0.968
1869.57	0.978
1878.26	0.976
1886.96	0.978
1895.65	0.978
1904.35	0.98
1913.05	0.983
1921.74	0.991
1930.44	0.985
1939.13	0.985
1947.83	0.978
1956.52	0.98
1965.22	0.98
1973.92	0.979
1982.61	0.979
1991.31	0.98
2000	0.971
2008.7	0.971
2017.39	0.975
2026.09	0.979
2034.78	0.972
2043.48	0.974
2052.18	0.975
2060.87	0.978
2069.57	0.979
2078.26	0.978
2086.96	0.971
2095.65	0.965
2104.35	0.952
2113.05	0.9011
2121.74	0.773
2130.44	0.9308
2139.13	0.964
2147.83	0.961
2156.52	0.945
2165.22	0.9639
2173.92	0.975
2182.61	0.978
2191.31	0.979
2200	0.978
2208.7	0.976
2217.39	0.975
2226.09	0.976
2234.79	0.975
2243.48	0.972
2252.18	0.975
2260.87	0.972
2269.57	0.964
2278.26	0.956
2286.96	0.957
2295.65	0.956
2304.35	0.953
2313.05	0.975
2321.74	0.963
2330.44	0.976
2339.13	0.989
2347.83	0.98
2356.52	0.974
2365.22	0.978
2373.92	0.979
2382.61	0.963
2391.31	0.975
2400	0.974
2408.7	0.978
2417.39	0.976
2426.09	0.978
2434.79	0.976
2443.48	0.97
2452.18	0.978
2460.87	0.978
2469.57	0.978
2478.26	0.98
2486.96	0.978
2495.66	0.975
2504.35	0.972
2513.05	0.978
2521.74	0.98
2530.44	0.978
2539.13	0.979
2547.83	0.98
2556.52	0.98
2565.22	0.975
2573.92	0.98
2582.61	0.979
2591.31	0.975
2600	0.978
2608.7	0.974
2617.39	0.948
2626.09	0.963
2634.79	0.976
2643.48	0.978
2652.18	0.974
2660.87	0.978
2669.57	0.976
2678.26	0.975
2686.96	0.971
2695.66	0.974
2704.35	0.976
2713.05	0.967
2721.74	0.968
2730.44	0.956
2739.13	0.953
2747.83	0.952
2756.53	0.955
2765.22	0.963
2773.92	0.953
2782.61	0.956
2791.31	0.961
2800	0.953
2808.7	0.946
2817.39	0.941
2826.09	0.919
2834.79	0.891
2843.48	0.8361
2852.18	0.767
2860.87	0.797
2869.57	0.78
2878.26	0.6433
2886.96	0.625
2895.66	0.707
2904.35	0.743
2913.05	0.6791
2921.74	0.52
2930.44	0.516
2939.13	0.463
2947.83	0.5092
2956.53	0.692
2965.22	0.6441
2973.92	0.456
2982.61	0.1781
2991.31	0.341
3000	0.6337
3008.7	0.779
3017.4	0.8699
3026.09	0.903
3034.79	0.931
3043.48	0.944
3052.18	0.957
3060.87	0.961
3069.57	0.965
3078.26	0.97
3086.96	0.976
3095.66	0.979
3104.35	0.982
3113.05	0.982
3121.74	0.979
3130.44	0.983
3139.13	0.986
3147.83	0.982
3156.53	0.985
3165.22	0.986
3173.92	0.982
3182.61	0.976
3191.31	0.971
3200	0.975
3208.7	0.975
3217.4	0.983
3226.09	0.98
3234.79	0.976
3243.48	0.971
3252.18	0.957
3260.87	0.952
3269.57	0.931
3278.26	0.901
3286.96	0.867
3295.66	0.7641
3304.35	0.529
3313.05	0.3844
3321.74	0.023
3330.44	0.2515
3339.13	0.724
3347.83	0.8259
3356.53	0.865
3365.22	0.895
3373.92	0.933
3382.61	0.957
3391.31	0.97
3400	0.978
3408.7	0.978
3417.4	0.98
3426.09	0.986
3434.79	0.982
3443.48	0.982
3452.18	0.985
3460.87	0.98
3469.57	0.978
3478.27	0.976
3486.96	0.985
3495.66	0.972
3504.35	0.975
3513.05	0.975
3521.74	0.972
3530.44	0.971
3539.13	0.975
3547.83	0.971
3556.53	0.976
3565.22	0.97
3573.92	0.972
3582.61	0.975
3591.31	0.972
3600	0.979
3608.7	0.976
3617.4	0.975
3626.09	0.97
3634.79	0.976
3643.48	0.971
3652.18	0.98
3660.87	0.975
3669.57	0.971
3678.27	0.978
3686.96	0.97
3695.66	0.964
3704.35	0.965
3713.05	0.974
3721.74	0.978
3730.44	0.978
3739.14	0.98
3747.83	0.982
3756.53	0.975
3765.22	0.975
3773.92	0.975
3782.61	0.974
