Infrared Spectrum: Formic acid
Formula: C H 2 O 2
CAS: 64-18-6
State: gas
Origin: Sadtler Research Labs Under US-EPA Contract
1/CM	ABSORBANCE
450	0.00357268
462	0.000369588
474	0.0115804
486	0.0118268
498	0.0109644
510	0.0202041
522	0.0214361
534	0.0272263
546	0.0416402
558	0.0500176
570	0.0893171
582	0.159785
594	0.179989
606	0.264871
618	0.328441
630	0.291112
642	0.607479
654	0.264625
666	0.269306
678	0.200686
690	0.150176
702	0.105825
714	0.0693593
726	0.0407779
738	0.0325237
750	0.018849
762	0.0145371
774	0.0121964
786	0.00739176
798	0.0103485
810	0.0117036
822	0.0092397
834	0.00948609
846	0.0109644
858	0.00862372
870	0.0109644
882	0.012566
894	0.0102253
906	0.01195
918	0.012566
930	0.00985568
942	0.0118268
954	0.0126892
966	0.0112108
978	0.0162619
990	0.017617
1002	0.0186026
1014	0.0261176
1026	0.030183
1038	0.0410243
1050	0.0838965
1062	0.19465
1074	0.462847
1086	0.794737
1098	0.477754
1110	0.595776
1122	0.934565
1134	0.495002
1146	0.110753
1158	0.0652939
1170	0.0641851
1182	0.0548222
1194	0.0591341
1206	0.0670186
1218	0.0588877
1230	0.0693593
1242	0.0645547
1254	0.0342485
1266	0.0291975
1278	0.0246392
1290	0.0239
1302	0.018849
1314	0.0215593
1326	0.0266103
1338	0.0203273
1350	0.0193418
1362	0.0184794
1374	0.0145371
1386	0.0140443
1398	0.0144139
1410	0.0146603
1422	0.0112108
1434	0.00948609
1446	0.0109644
1458	0.00505104
1470	0.00788454
1482	0.0093629
1494	0.00665258
1506	0.00271031
1518	0.00443506
1530	0.00542062
1542	0.000246392
1554	0.00689898
1566	0.00665258
1578	0.00788454
1590	0.00862372
1602	0.00825413
1614	0.00837733
1626	0.00776135
1638	0.00591341
1650	0.006283
1662	0.00997888
1674	0.00542062
1686	0.0104717
1698	0.0140443
1710	0.0316614
1722	0.0745336
1734	0.215963
1746	0.61561
1758	1.05283
1770	0.744473
1782	0.484899
1794	1.19894
1806	0.544157
1818	0.100774
1830	0.0279655
1842	0.0226681
1854	0.0145371
1866	0.01195
1878	0.00960929
1890	0.00566702
1902	0.00529743
1914	0.0060366
1926	0.00480464
1938	0.00517423
1950	0.00652939
1962	0.00431186
1974	0.00369588
1986	0.00394227
1998	0.00246392
2010	0.0032031
2022	0.00344949
2034	0.00246392
2046	0.00271031
2058	0.00209433
2070	0.00172474
2082	0.00221753
2094	0.00160155
2106	0.00172474
2118	0.00221753
2130	0.00221753
2142	0.00271031
2154	0.00579021
2166	0.0091165
2178	0.0144139
2190	0.0139211
2202	0.0162619
2214	0.0202041
2226	0.00899331
2238	0.000246392
2250	0.000369588
2262	0.00123196
2274	0.00172474
2286	0.0032031
2298	0.0032031
2310	0.00505104
2322	0.00443506
2334	0.000985568
2346	0.00258712
2358	0.00234072
2370	0.00258712
2382	0.00468145
2394	0.0030799
2406	0.00357268
2418	0.00505104
2430	0.00221753
2442	0.000985568
2454	0.00110876
2466	0.00135516
2478	0.00110876
2490	0.00160155
2502	0.00123196
2514	0.00110876
2526	0.00147835
2538	0.00147835
2550	0.00135516
2562	0.00160155
2574	0.00172474
2586	0.00147835
2598	0.00197114
2610	0.00110876
2622	0.00172474
2634	0.00135516
2646	0.00061598
2658	0.00110876
2670	0.000985568
2682	0.00110876
2694	0.00147835
2706	0.00184794
2718	0.00172474
2730	0.00246392
2742	0.00209433
2754	0.00209433
2766	0.0030799
2778	0.00283351
2790	0.0029567
2802	0.00418866
2814	0.00357268
2826	0.00492784
2838	0.00825413
2850	0.0128124
2862	0.017617
2874	0.0230377
2886	0.0315382
2898	0.0423794
2910	0.0554382
2922	0.0739176
2934	0.0713305
2946	0.0481696
2958	0.0899331
2970	0.0723161
2982	0.0489088
2994	0.0357268
3006	0.0288279
3018	0.0204505
3030	0.0139211
3042	0.0105949
3054	0.00788454
3066	0.00702217
3078	0.00640619
3090	0.00702217
3102	0.00850052
3114	0.00763815
3126	0.00751496
3138	0.00813094
3150	0.00726856
3162	0.00677578
3174	0.00751496
3186	0.00714537
3198	0.006283
3210	0.00591341
3222	0.00554382
3234	0.00542062
3246	0.00517423
3258	0.00455825
3270	0.00455825
3282	0.00468145
3294	0.00431186
3306	0.00443506
3318	0.00418866
3330	0.0029567
3342	0.00246392
3354	0.0029567
3366	0.00246392
3378	0.00258712
3390	0.00209433
3402	0.00172474
3414	0.00246392
3426	0.00221753
3438	0.00184794
3450	0.00246392
3462	0.00431186
3474	0.00739176
3486	0.0155227
3498	0.0267335
3510	0.0429954
3522	0.0611052
3534	0.0885779
3546	0.129849
3558	0.118761
3570	0.06283
3582	0.124182
3594	0.114819
3606	0.0725624
3618	0.0500176
3630	0.0342485
3642	0.0218057
3654	0.0133052
3666	0.00850052
3678	0.00184794
3690	0.00221753
3702	0.00160155
3714	0.00123196
3726	0.00221753
3738	0.000985568
3750	0.00184794
3762	0.00147835
3774	0.000862372
3786	0.00160155
3798	0.000862372
3810	0.0029567
3822	0.000739176
3834	0.00172474
3846	0.00135516
3858	0.000246392
3870	0.000492784
3882	0.00160155
3894	0.000369588
3906	0.00172474
3918	0.000985568
3930	0.00209433
3942	0.00135516
3954	0.00110876
3966	0.00209433
