Infrared Spectrum: 4-Aminobutanol
Formula: C 4 H 11 N O
CAS: 13325-10-5
State: gas
Instrument: HP-GC/MS/IRD
Origin: NIST Mass Spectrometry Data Center
1/CM	ABSORBANCE
550	0.0019024
562	0.0004814
574	0.000348
586	0.0005278
598	0.0006554
610	0.0008352
622	0.0010556
634	0.001334
646	0.0016008
658	0.00203
670	0.0024534
682	0.0030102
694	0.0037642
706	0.0050112
718	0.0070064
730	0.0100108
742	0.013166
754	0.0157818
766	0.017342
778	0.0164024
790	0.0129166
802	0.0091582
814	0.0068788
826	0.0053882
838	0.004408
850	0.0039846
862	0.0037584
874	0.0035612
886	0.0033466
898	0.00319
910	0.0034278
922	0.0039556
934	0.0046168
946	0.0052722
958	0.006032
970	0.0069542
982	0.0083056
994	0.0103994
1006	0.0134618
1018	0.017748
1030	0.0232754
1042	0.0290464
1054	0.0300092
1066	0.0231942
1078	0.0150974
1090	0.0101674
1102	0.007134
1114	0.0050576
1126	0.0038512
1138	0.0032654
1150	0.0029174
1162	0.0028246
1174	0.0028768
1186	0.0030914
1198	0.0034626
1210	0.0038222
1222	0.0040658
1234	0.0042108
1246	0.0041992
1258	0.0042456
1270	0.0042514
1282	0.004118
1294	0.0038976
1306	0.0036598
1318	0.0036308
1330	0.0039962
1342	0.0046864
1354	0.0055506
1366	0.0069136
1378	0.0087754
1390	0.0089958
1402	0.0067744
1414	0.0045472
1426	0.0041006
1438	0.0045878
1450	0.0048256
1462	0.0045298
1474	0.0039962
1486	0.0030102
1498	0.0016472
1510	0.0010324
1522	0.0007772
1534	0.000725
1546	0.0008178
1558	0.0009686
1570	0.0011658
1582	0.0015776
1594	0.0023374
1606	0.0037236
1618	0.0051272
1630	0.0049126
1642	0.00319
1654	0.0016878
1666	0.0008526
1678	0.0004524
1690	0.0002262
1702	0.0001508
1714	9.86e-05
1726	6.38e-05
1738	5.8e-05
1750	5.22e-05
1762	5.22e-05
1774	5.22e-05
1786	6.96e-05
1798	8.7e-05
1810	0.0001218
1822	0.0001566
1834	0.000145
1846	0.0001334
1858	8.12e-05
1870	5.22e-05
1882	0
1894	0
1906	0
1918	2.9e-05
1930	2.32e-05
1942	5.22e-05
1954	6.38e-05
1966	5.22e-05
1978	8.12e-05
1990	0.000116
2002	0.0001276
2014	0.0001798
2026	0.0002262
2038	0.0002668
2050	0.00029
2062	0.0002842
2074	0.0002784
2086	0.0002842
2098	0.0002668
2110	0.0002784
2122	0.00029
2134	0.0002842
2146	0.0002958
2158	0.0003074
2170	0.0003016
2182	0.000319
2194	0.0003132
2206	0.0003306
2218	0.0003306
2230	0.0003364
2242	0.0003248
2254	0.0003248
2266	0.0003364
2278	0.0003538
2290	0.0003654
2302	0.0003712
2314	0.0004002
2326	0.0004002
2338	0.0004176
2350	0.000377
2362	0.000435
2374	0.0004002
2386	0.0003712
2398	0.000348
2410	0.0003828
2422	0.0003828
2434	0.0003886
2446	0.0003828
2458	0.0003886
2470	0.0003828
2482	0.0003712
2494	0.0003828
2506	0.000377
2518	0.0004118
2530	0.0004118
2542	0.0004524
2554	0.0004524
2566	0.0005336
2578	0.000551
2590	0.0006264
2602	0.000696
2614	0.0007656
2626	0.0008758
2638	0.0010208
2650	0.0011774
2662	0.001363
2674	0.0016066
2686	0.0018328
2698	0.0020822
2710	0.002349
2722	0.00261
2734	0.002958
2746	0.0033176
2758	0.0035786
2770	0.0038048
2782	0.0041122
2794	0.0046864
2806	0.0057826
2818	0.0078938
2830	0.0117218
2842	0.0178176
2854	0.0250038
2866	0.0309256
2878	0.0334776
2890	0.0333732
2902	0.0359426
2914	0.0446948
2926	0.0550536
2938	0.057478
2950	0.0473106
2962	0.0314592
2974	0.018067
2986	0.0093844
2998	0.0049068
3010	0.0029348
3022	0.0019604
3034	0.0014326
3046	0.0010382
3058	0.0007946
3070	0.0006206
3082	0.0005336
3094	0.0004698
3106	0.0004176
3118	0.0003596
3130	0.0003886
3142	0.000377
3154	0.0003654
3166	0.0003944
3178	0.000406
3190	0.0003596
3202	0.0003944
3214	0.0003712
3226	0.000377
3238	0.000348
3250	0.000348
3262	0.0003364
3274	0.0003422
3286	0.000377
3298	0.0004176
3310	0.0005162
3322	0.000696
3334	0.0010208
3346	0.001508
3358	0.0018734
3370	0.00203
3382	0.0021286
3394	0.0021866
3406	0.0021924
3418	0.0021112
3430	0.0019372
3442	0.0018038
3454	0.001653
3466	0.0015022
3478	0.0013572
3490	0.0011774
3502	0.0009802
3514	0.0008642
3526	0.0007598
3538	0.000667
3550	0.0005394
3562	0.0004988
3574	0.000493
3586	0.0005336
3598	0.0005568
3610	0.0006728
3622	0.0009106
3634	0.0015776
3646	0.0029464
3658	0.0050808
3670	0.0060842
3682	0.0044834
3694	0.001972
3706	0.0008584
3718	0.000435
3730	0.000261
3742	0.0002378
3754	0.0001914
3766	0.0001102
3778	8.7e-05
3790	0.0001102
3802	9.28e-05
3814	0.0001334
3826	0.0001682
3838	0.0001682
