Infrared Spectrum: 3-Buten-1-ol, 3-methyl-
Formula: C 5 H 10 O
CAS: 763-32-6
State: gas
Origin: Sadtler Research Labs Under US-EPA Contract
1/CM	ABSORBANCE
450	0.0401201
462	0.0279449
474	0.0118273
486	0.00794285
498	0.00342064
510	0.00672533
522	0.0187845
534	0.0233068
546	0.0339745
558	0.0468454
570	0.0309017
582	0.00573972
594	0.0146102
606	0.00602961
618	0.00794285
630	0.00608758
642	0.00910239
654	0.00771094
666	0.00771094
678	0.00684129
690	0.00945025
702	0.0105518
714	0.0095662
726	0.0102619
738	0.00840666
750	0.0104938
762	0.0108417
774	0.0121752
786	0.00968216
798	0.0110736
810	0.0143783
822	0.0205818
834	0.0317714
846	0.0565856
858	0.0875453
870	0.128593
882	0.204079
894	0.323338
906	0.239213
918	0.115316
930	0.0540346
942	0.042787
954	0.045396
966	0.0665576
978	0.0979811
990	0.122563
1002	0.135898
1014	0.167322
1026	0.261998
1038	0.407868
1050	0.516401
1062	0.518662
1074	0.372734
1086	0.185816
1098	0.0960099
1110	0.0760658
1122	0.0805301
1134	0.0863278
1146	0.0886468
1158	0.0782689
1170	0.0891106
1182	0.103547
1194	0.106794
1206	0.0993146
1218	0.0877192
1230	0.0787328
1242	0.0751382
1254	0.0742106
1266	0.0768775
1278	0.0786748
1290	0.0752541
1302	0.0707899
1314	0.0703261
1326	0.0749643
1338	0.0763557
1350	0.075718
1362	0.0979811
1374	0.166568
1386	0.221066
1398	0.184947
1410	0.122505
1422	0.105576
1434	0.122679
1446	0.141928
1458	0.137348
1470	0.113635
1482	0.0768775
1494	0.0404679
1506	0.020118
1518	0.0130448
1530	0.0103199
1542	0.00863857
1554	0.00991407
1566	0.0106098
1578	0.0115374
1590	0.0153059
1602	0.0161756
1614	0.0216254
1626	0.0419753
1638	0.0872554
1650	0.118273
1662	0.0998364
1674	0.0386127
1686	0.0112475
1698	0.00446423
1710	0.00434827
1722	0.00347862
1734	0.00405839
1746	0.00469614
1758	0.00597163
1770	0.00747903
1782	0.0137985
1794	0.0197122
1806	0.0181468
1818	0.010146
1830	0.00365255
1842	0.00191324
1854	0.00057977
1866	0.00110156
1878	0.000695724
1890	0.00144942
1902	0.00179729
1914	0.00249301
1926	0.00318873
1938	0.00220313
1950	0.00104359
1962	0.000985609
1974	0.00110156
1986	0.00057977
1998	0.000637747
2010	0.000869655
2022	0.00127549
2034	0.00249301
2046	0.0037685
2058	0.00255099
2070	0.00307278
2082	0.00347862
2094	0.00284087
2106	0.00347862
2118	0.00266694
2130	0.00173931
2142	0.00110156
2154	0.000753701
2166	0.000347862
2178	0.000521793
2190	0.000173931
2202	0.000637747
2214	0.000521793
2226	0.000347862
2238	0.000753701
2250	0.00110156
2262	0.000753701
2274	0.00144942
2286	0.00185526
2298	0.00220313
2310	0.00266694
2322	0.00127549
2334	0.00197122
2346	0.00342064
2358	0
2370	0.0057977
2382	0.00521793
2394	0.00260896
2406	0.00289885
2418	0.00336267
2430	0.00336267
2442	0.00313076
2454	0.00243503
2466	0.00197122
2478	0.00191324
2490	0.00197122
2502	0.00173931
2514	0.00173931
2526	0.00156538
2538	0.00231908
2550	0.00133347
2562	0.00185526
2574	0.00156538
2586	0.00127549
2598	0.00202919
2610	0.00284087
2622	0.0042903
2634	0.00626152
2646	0.00747903
2658	0.0085806
2670	0.00968216
2682	0.0108997
2694	0.0118273
2706	0.0137985
2718	0.017625
2730	0.0213355
2742	0.0247562
2754	0.0259737
2766	0.0266114
2778	0.0280609
2790	0.0313656
2802	0.037917
2814	0.0499762
2826	0.0686448
2838	0.0962418
2850	0.141754
2862	0.213529
2874	0.304611
2886	0.37772
2898	0.404448
2910	0.436277
2922	0.490891
2934	0.566377
2946	0.573972
2958	0.475701
2970	0.434654
2982	0.365893
2994	0.239387
3006	0.120824
3018	0.0658619
3030	0.0433668
3042	0.0364096
3054	0.0394823
3066	0.0753701
3078	0.153291
3090	0.154509
3102	0.0745584
3114	0.022669
3126	0.0113055
3138	0.0073051
3150	0.00649342
3162	0.00533388
3174	0.00452221
3186	0.00440625
3198	0.00405839
3210	0.00347862
3222	0.0030148
3234	0.0027829
3246	0.00237706
3258	0.00295683
3270	0.00185526
3282	0.000985609
3294	0.000695724
3306	0.00214515
3318	0.00168133
3330	0.00162336
3342	0.00208717
3354	0.00121752
3366	0.00272492
3378	0.00231908
3390	0.00121752
3402	0.00255099
3414	0.0022611
3426	0.00371053
3438	0.00313076
3450	0.00324671
3462	0.00359457
3474	0.00568175
3486	0.00626152
3498	0.00753701
3510	0.00626152
3522	0.00544984
3534	0.00475411
3546	0.00539186
3558	0.00626152
3570	0.0108997
3582	0.012581
3594	0.0211616
3606	0.0443524
3618	0.0535128
3630	0.0532229
3642	0.0543244
3654	0.0691666
3666	0.0892266
3678	0.0725872
3690	0.0369313
3702	0.0170452
3714	0.00904441
3726	0.0078269
3738	0.00765296
3750	0.0088125
3762	0.00904441
3774	0.00498602
3786	0.00602961
3798	0.00313076
3810	0.00614556
3822	0.00458018
3834	0.005044
3846	0.00556579
3858	0.00724713
3870	0.00475411
3882	0.00788487
3894	0.00649342
3906	0.00666735
3918	0.00533388
3930	0.00811678
3942	0.00678331
3954	0.00875453
3966	0.00382648
