Infrared Spectrum: Oxazole
Formula: C 3 H 3 N O
CAS: 288-42-6
State: gas
Instrument: HP-GC/MS/IRD
Origin: NIST Mass Spectrometry Data Center
1/CM	ABSORBANCE
550	0.0007476
562	0.0005488
574	0.0007658
586	0.0010458
598	0.0014154
610	0.0036596
622	0.0031066
634	0.0032746
646	0.0109648
658	0.0029428
670	0.0036596
682	0.002359
694	0.0011396
706	0.0018998
718	0.003241
730	0.0032032
742	0.0074704
754	0.005096
766	0.0040572
778	0.004158
790	0.0029792
802	0.002541
814	0.0022134
826	0.006762
838	0.0017598
850	0.0030618
862	0.0032942
874	0.0039578
886	0.0056014
898	0.0072674
910	0.0072548
922	0.0055692
934	0.0035154
946	0.0011788
958	0.0001876
970	5.32e-05
982	3.08e-05
994	0.0001862
1006	0.0009338
1018	0.0030422
1030	0.006174
1042	0.0076062
1054	0.0103754
1066	0.0121996
1078	0.0079842
1090	0.0058604
1102	0.0052276
1114	0.0053116
1126	0.0051968
1138	0.0047222
1150	0.0047222
1162	0.0038094
1174	0.0014518
1186	0.0006314
1198	0.0005908
1210	0.0005586
1222	0.000511
1234	0.0004676
1246	0.0003486
1258	0.0003976
1270	0.0003724
1282	0.0004522
1294	0.0006216
1306	0.0010024
1318	0.0010038
1330	0.000903
1342	0.0008554
1354	0.0004956
1366	0.0001764
1378	7.7e-05
1390	3.5e-05
1402	9.66e-05
1414	0.000126
1426	0.000175
1438	0.0003038
1450	0.0007322
1462	0.0014546
1474	0.0028672
1486	0.0050064
1498	0.005488
1510	0.0059892
1522	0.006594
1534	0.004263
1546	0.0024682
1558	0.0021686
1570	0.0015344
1582	0.001428
1594	0.00154
1606	0.0013734
1618	0.0014714
1630	0.00133
1642	0.0011886
1654	0.0012656
1666	0.0015876
1678	0.0016268
1690	0.0011452
1702	0.0009926
1714	0.0005432
1726	0.000364
1738	0.0002002
1750	8.4e-05
1762	7.7e-05
1774	3.08e-05
1786	8.4e-05
1798	8.4e-05
1810	6.72e-05
1822	9.8e-05
1834	3.92e-05
1846	5.6e-05
1858	1.96e-05
1870	9.1e-05
1882	7.56e-05
1894	7.98e-05
1906	0.000112
1918	0.0001008
1930	0.0001386
1942	9.94e-05
1954	9.94e-05
1966	0.0001232
1978	6.72e-05
1990	0.0001106
2002	0.0001008
2014	0.000133
2026	0.0001148
2038	0.000105
2050	0.0001064
2062	0.0001484
2074	0.0001358
2086	0.0001232
2098	0.0001806
2110	0.0002296
2122	0.0001232
2134	0.000182
2146	0.0001918
2158	0.000245
2170	0.0001806
2182	0.0002562
2194	0.0002268
2206	0.0002814
2218	0.0002758
2230	0.0002002
2242	0.0001764
2254	0.0001848
2266	0.0002618
2278	0.0002044
2290	0.000245
2302	0.0002506
2314	0.0001946
2326	0.0001358
2338	0.0001302
2350	9.8e-05
2362	0.0001246
2374	0.0001526
2386	0.0002058
2398	0.0002086
2410	0.0001778
2422	0.000182
2434	0.000168
2446	0.0001442
2458	0.0001484
2470	0.000175
2482	0.000175
2494	0.0001078
2506	0.0001666
2518	8.68e-05
2530	0.0001204
2542	0.0001526
2554	0.0001442
2566	0.0002352
2578	0.0002296
2590	0.0002898
2602	0.0002562
2614	0.0002086
2626	0.000273
2638	0.0002212
2650	0.0001638
2662	0.0001932
2674	0.0001764
2686	8.12e-05
2698	6.86e-05
2710	0.000119
2722	7.7e-05
2734	7.56e-05
2746	4.2e-05
2758	0.000168
2770	0.000119
2782	8.68e-05
2794	0.0001232
2806	0.0001484
2818	0.0001638
2830	0.0001442
2842	0.0001512
2854	0.0001092
2866	9.8e-05
2878	0.000259
2890	9.8e-05
2902	9.1e-05
2914	9.38e-05
2926	0.0001456
2938	0.0001176
2950	0.0001064
2962	0.0001526
2974	0.0001946
2986	0.0002128
2998	0.0001498
3010	0.000161
3022	0.0001218
3034	0.0002716
3046	0.0001624
3058	0.0001764
3070	0.0001792
3082	0.000175
3094	0.0001078
3106	0.0001946
3118	0.0004172
3130	0.000581
3142	0.0005964
3154	0.000637
3166	0.0006426
3178	0.000343
3190	0.0002394
3202	0.0001778
3214	9.1e-05
3226	6.72e-05
3238	0.000105
3250	0.000196
3262	0.0001106
3274	0.0001316
3286	8.4e-05
3298	0.0001414
3310	0.0001554
3322	0.000126
3334	6.02e-05
3346	0.0001064
3358	0.0001722
3370	4.34e-05
3382	0.000161
3394	8.4e-05
3406	0.0002198
3418	0.0002184
3430	0.0001204
3442	0.0002856
3454	0.0002352
3466	0.0001764
3478	0.0001218
3490	0.0002884
3502	0.000203
3514	0.00021
3526	0.0002072
3538	0.0001736
3550	0.0002492
3562	8.4e-05
3574	0.0001148
3586	0.0001918
3598	0.0002716
3610	0.0002086
3622	6.3e-05
3634	0.0001036
3646	0.0002128
3658	0.0002464
3670	0.000133
3682	0.0002058
3694	0.000175
3706	0.0002996
3718	0.00014
3730	0.000217
3742	0.0001582
3754	0.0002128
3766	0.0001372
3778	0.0001932
3790	0.0002282
3802	0.0001624
3814	0.0003038
3826	0.00014
3838	0.00014
