Infrared Spectrum: 2-BUTANONE
Formula: C4 H8 O
CAS: 78-93-3
State: SOLUTION (10% IN CCl4 FOR 3800-1300, 10% IN CS2 FOR 1300-650, AND 10% CCl4 FOR 650-250 CM^-^1) VERSUS SOLVENT
Class: COBLENTZ III
Instrument: PERKIN-ELMER 521 (GRATING)
Instrument parameters: FILTERS AT 3150, 2500, 2000, 1150, 700, 410; GRATING CHANGES AT 2000, 630 CM^-^1
Sampling: TRANSMISSION
Path length: 0.012, 0.011, AND 0.010 CM (CsBr CELL)
Resolution: 4
Origin: DOW CORNING CORP.
1/CM	TRANSMITTANCE
241.289	0.745
251.12	0.758
260.95	0.814
270.781	0.841
280.612	0.857
290.443	0.88
300.273	0.89
310.104	0.894
319.935	0.916
329.765	0.93
339.596	0.933
349.427	0.933
359.257	0.934
369.088	0.937
378.919	0.938
388.75	0.894
398.58	0.786
408.411	0.766
418.242	0.888
428.072	0.896
437.903	0.885
447.734	0.873
457.565	0.844
467.395	0.854
477.226	0.853
487.057	0.84
496.887	0.826
506.718	0.77
516.549	0.661
526.38	0.79
536.21	0.816
546.041	0.822
555.872	0.802
565.702	0.784
575.533	0.713
585.364	0.576
595.194	0.777
605.025	0.849
614.856	0.861
624.687	0.868
634.517	0.872
644.348	0.874
654.179	0.876
664.009	0.876
673.84	0.876
683.671	0.873
693.502	0.869
703.332	0.864
713.163	0.853
722.994	0.842
732.824	0.8
742.655	0.681
752.486	0.593
762.317	0.686
772.147	0.821
781.978	0.832
791.809	0.841
801.639	0.85
811.47	0.852
821.301	0.864
831.131	0.872
840.962	0.85
850.793	0.838
860.624	0.836
870.454	0.84
880.285	0.838
890.116	0.836
899.946	0.8
909.777	0.758
919.608	0.646
929.439	0.45
939.269	0.364
949.1	0.444
958.931	0.621
968.761	0.705
978.592	0.717
988.423	0.652
998.254	0.71
1008.08	0.772
1017.91	0.782
1027.75	0.788
1037.58	0.792
1047.41	0.777
1057.24	0.76
1067.07	0.706
1076.9	0.601
1086.73	0.592
1096.56	0.692
1106.39	0.71
1116.22	0.729
1126.05	0.709
1135.88	0.65
1145.71	0.512
1155.54	0.2089
1165.38	0.03
1175.21	0.106
1185.04	0.374
1194.87	0.402
1204.7	0.44
1214.53	0.618
1224.36	0.68
1234.19	0.688
1244.02	0.646
1253.85	0.633
1263.68	0.677
1273.51	0.721
1283.34	0.718
1293.17	0.698
1303.01	0.682
1312.84	0.641
1322.67	0.582
1332.5	0.413
1342.33	0.238
1352.16	0.088
1361.99	0.036
1371.82	0.1771
1381.65	0.3042
1391.48	0.458
1401.31	0.354
1411.14	0.1799
1420.97	0.2341
1430.8	0.309
1440.64	0.34
1450.47	0.265
1460.3	0.169
1470.13	0.5421
1479.96	0.652
1489.79	0.701
1499.62	0.724
1509.45	0.74
1519.28	0.757
1529.11	0.77
1538.94	0.79
1548.77	0.798
1558.6	0.793
1568.43	0.79
1578.27	0.798
1588.1	0.805
1597.93	0.806
1607.76	0.804
1617.59	0.804
1627.42	0.8
1637.25	0.789
1647.08	0.769
1656.91	0.736
1666.74	0.674
1676.57	0.546
1686.4	0.48
1696.23	0.2809
1706.06	0.002
1715.9	0
1725.73	0.004
1735.56	0.1321
1745.39	0.364
1755.22	0.4621
1765.05	0.6161
1774.88	0.705
1784.71	0.774
1794.54	0.814
1804.37	0.834
1814.2	0.856
1824.03	0.862
1833.86	0.865
1843.69	0.869
1853.53	0.87
1863.36	0.868
1873.19	0.862
1883.02	0.86
1892.85	0.866
1902.68	0.869
1912.51	0.872
1922.34	0.869
1932.17	0.87
1942	0.874
1951.83	0.876
1961.66	0.878
1971.49	0.877
1981.32	0.873
1991.16	0.878
2000.99	0.8875
2010.82	0.894
2020.65	0.894
2030.48	0.892
2040.31	0.8895
2050.14	0.8895
2059.97	0.889
2069.8	0.8846
2079.63	0.88
2089.46	0.8712
2099.29	0.8652
2109.12	0.8598
2118.95	0.857
2128.78	0.861
2138.62	0.8694
2148.45	0.872
2158.28	0.8724
2168.11	0.874
2177.94	0.8821
2187.77	0.883
2197.6	0.879
2207.43	0.8817
2217.26	0.881
2227.09	0.881
2236.92	0.8843
2246.75	0.884
2256.58	0.8807
2266.41	0.877
2276.25	0.873
2286.08	0.8693
2295.91	0.866
2305.74	0.868
2315.57	0.8692
2325.4	0.87
2335.23	0.87
2345.06	0.869
2354.89	0.8664
2364.72	0.8698
2374.55	0.872
2384.38	0.8698
2394.21	0.8722
2404.04	0.872
2413.88	0.87
2423.71	0.8729
2433.54	0.8739
2443.37	0.8729
2453.2	0.869
2463.03	0.866
2472.86	0.8678
2482.69	0.868
2492.52	0.869
2502.35	0.8649
2512.18	0.862
2522.01	0.8679
2531.84	0.8659
2541.67	0.8661
2551.51	0.87
2561.34	0.8719
2571.17	0.8681
2581	0.869
2590.83	0.868
2600.66	0.87
2610.49	0.868
2620.32	0.866
2630.15	0.866
2639.98	0.8661
2649.81	0.864
2659.64	0.8621
2669.47	0.864
2679.3	0.861
2689.14	0.86
2698.97	0.858
2708.8	0.853
2718.63	0.8502
2728.46	0.8423
2738.29	0.8331
2748.12	0.8418
2757.95	0.844
2767.78	0.838
2777.61	0.8266
2787.44	0.8088
2797.27	0.7857
2807.1	0.7655
2816.93	0.7612
2826.77	0.7572
2836.6	0.7544
2846.43	0.7452
2856.26	0.7249
2866.09	0.6749
2875.92	0.5528
2885.75	0.3949
2895.58	0.394
2905.41	0.337
2915.24	0.3417
2925.07	0.3937
2934.9	0.3238
2944.73	0.209
2954.56	0.369
2964.4	0.3307
2974.23	0.1768
2984.06	0.0775
2993.89	0.1974
3003.72	0.4013
3013.55	0.4879
3023.38	0.6215
3033.21	0.6937
3043.04	0.735
3052.87	0.7576
3062.7	0.7757
3072.53	0.7936
3082.36	0.8016
3092.19	0.8126
3102.03	0.8267
3111.86	0.8336
3121.69	0.8454
3131.52	0.8494
3141.35	0.8511
3151.18	0.852
3161.01	0.853
3170.84	0.853
3180.67	0.8565
3190.5	0.861
3200.33	0.8655
3210.16	0.869
3219.99	0.869
3229.82	0.8695
3239.65	0.872
3249.49	0.873
3259.32	0.8749
3269.15	0.877
3278.98	0.874
3288.81	0.874
3298.64	0.873
3308.47	0.872
3318.3	0.872
3328.13	0.872
3337.96	0.87
3347.79	0.87
3357.62	0.87
3367.45	0.8673
3377.28	0.8617
3387.12	0.854
3396.95	0.8357
3406.78	0.7977
3416.61	0.7601
3426.44	0.7559
3436.27	0.8169
3446.1	0.8518
3455.93	0.865
3465.76	0.866
3475.59	0.8657
3485.42	0.8665
3495.25	0.8687
3505.08	0.8658
3514.91	0.8652
3524.75	0.8648
3534.58	0.864
3544.41	0.8652
3554.24	0.865
3564.07	0.87
3573.9	0.8746
3583.73	0.8836
3593.56	0.8802
3603.39	0.8808
3613.22	0.877
3623.05	0.878
3632.88	0.8779
3642.71	0.877
3652.54	0.8769
3662.38	0.874
3672.21	0.8699
3682.04	0.86
3691.87	0.8643
3701.7	0.8822
3711.53	0.886
3721.36	0.8861
3731.19	0.8899
3741.02	0.8901
3750.85	0.892
3760.68	0.89
3770.51	0.89
3780.34	0.889
3790.17	0.888
