Infrared Spectrum: 2-BUTANONE
Formula: C4 H8 O
CAS: 78-93-3
State: GAS (23 mmHg, N2 ADDED, TOTAL PRESSURE 600 mmHg)
Class: COBLENTZ
Instrument: BECKMAN IR-9 (GRATING)
Instrument parameters: ORDER CHANGES: 670, 1200, 2000 CM^-^1
Sampling: TRANSMISSION
Path length: 10 CM
Resolution: 2
Origin: DOW CHEMICAL COMPANY
1/CM	TRANSMITTANCE
196.313	0.005
206.146	0
215.979	0
225.813	0
235.646	0
245.479	0
255.312	0.001
265.146	0
274.979	0
284.812	0.009
294.645	0.003
304.478	0.011
314.312	0.028
324.145	0.041
333.978	0.069
343.811	0.117
353.644	0.183
363.478	0.2499
373.311	0.318
383.144	0.378
392.977	0.425
402.811	0.4829
412.644	0.543
422.477	0.619
432.31	0.683
442.143	0.732
451.977	0.762
461.81	0.786
471.643	0.807
481.476	0.82
491.309	0.831
501.143	0.797
510.976	0.788
520.809	0.792
530.642	0.794
540.476	0.816
550.309	0.842
560.142	0.852
569.975	0.812
579.808	0.735
589.642	0.728
599.475	0.752
609.308	0.827
619.141	0.861
628.974	0.868
638.808	0.872
648.641	0.868
658.474	0.906
668.307	0.9001
678.141	0.913
687.974	0.917
697.807	0.919
707.64	0.919
717.473	0.923
727.307	0.915
737.14	0.897
746.973	0.853
756.806	0.81
766.64	0.823
776.473	0.878
786.306	0.913
796.139	0.921
805.972	0.925
815.806	0.928
825.639	0.928
835.472	0.926
845.305	0.93
855.138	0.928
864.972	0.926
874.805	0.923
884.638	0.919
894.471	0.913
904.305	0.9
914.138	0.872
923.971	0.818
933.804	0.749
943.637	0.687
953.471	0.679
963.304	0.728
973.137	0.801
982.97	0.827
992.803	0.837
1002.64	0.848
1012.47	0.867
1022.3	0.885
1032.14	0.897
1041.97	0.898
1051.8	0.895
1061.64	0.882
1071.47	0.857
1081.3	0.82
1091.14	0.825
1100.97	0.829
1110.8	0.853
1120.64	0.859
1130.47	0.848
1140.3	0.81
1150.13	0.6741
1159.97	0.3821
1169.8	0.224
1179.63	0.198
1189.47	0.32
1199.3	0.503
1209.13	0.653
1218.97	0.7369
1228.8	0.823
1238.63	0.85
1248.47	0.842
1258.3	0.835
1268.13	0.838
1277.97	0.852
1287.8	0.868
1297.63	0.857
1307.47	0.825
1317.3	0.78
1327.13	0.726
1336.97	0.649
1346.8	0.5391
1356.63	0.3201
1366.47	0.25
1376.3	0.234
1386.13	0.4469
1395.97	0.623
1405.8	0.653
1415.63	0.599
1425.46	0.588
1435.3	0.543
1445.13	0.571
1454.96	0.571
1464.8	0.548
1474.63	0.591
1484.46	0.6589
1494.3	0.769
1504.13	0.818
1513.96	0.822
1523.8	0.82
1533.63	0.831
1543.46	0.835
1553.3	0.855
1563.13	0.85
1572.96	0.872
1582.8	0.876
1592.63	0.883
1602.46	0.889
1612.3	0.897
1622.13	0.887
1631.96	0.897
1641.8	0.887
1651.63	0.887
1661.46	0.883
1671.3	0.878
1681.13	0.855
1690.96	0.812
1700.79	0.754
1710.63	0.6041
1720.46	0.3331
1730.29	0.091
1740.13	0.043
1749.96	0.031
1759.79	0.131
1769.63	0.4341
1779.46	0.7259
1789.29	0.842
1799.13	0.883
1808.96	0.9
1818.79	0.906
1828.63	0.906
1838.46	0.91
1848.29	0.908
1858.13	0.906
1867.96	0.902
1877.79	0.9
1887.63	0.9
1897.46	0.9
1907.29	0.904
1917.13	0.906
1926.96	0.91
1936.79	0.91
1946.63	0.911
1956.46	0.91
1966.29	0.91
1976.13	0.91
1985.96	0.91
1995.79	0.9
2005.62	0.911
2015.46	0.913
2025.29	0.915
2035.12	0.915
2044.96	0.915
2054.79	0.913
2064.62	0.911
2074.46	0.911
2084.29	0.9079
2094.12	0.9029
2103.96	0.898
2113.79	0.897
2123.62	0.898
2133.46	0.9
2143.29	0.908
2153.12	0.91
2162.96	0.91
2172.79	0.91
2182.62	0.911
2192.46	0.913
2202.29	0.915
2212.12	0.915
2221.96	0.915
2231.79	0.9183
2241.62	0.919
2251.46	0.917
2261.29	0.917
2271.12	0.915
2280.95	0.9097
2290.79	0.91
2300.62	0.9136
2310.45	0.9224
2320.29	0.9385
2330.12	0.9444
2339.95	0.943
2349.79	0.941
2359.62	0.9396
2369.45	0.9292
2379.29	0.9166
2389.12	0.911
2398.95	0.915
2408.79	0.913
2418.62	0.913
2428.45	0.913
2438.29	0.9155
2448.12	0.915
2457.95	0.915
2467.79	0.913
2477.62	0.915
2487.45	0.9155
2497.29	0.915
2507.12	0.9114
2516.95	0.91
2526.79	0.91
2536.62	0.9116
2546.45	0.913
2556.28	0.913
2566.12	0.915
2575.95	0.917
2585.78	0.917
2595.62	0.9137
2605.45	0.913
2615.28	0.9157
2625.12	0.917
2634.95	0.915
2644.78	0.915
2654.62	0.9143
2664.45	0.9101
2674.28	0.908
2684.12	0.908
2693.95	0.91
2703.78	0.91
2713.62	0.908
2723.45	0.906
2733.28	0.9032
2743.12	0.898
2752.95	0.897
2762.78	0.898
2772.62	0.9
2782.45	0.8971
2792.28	0.8861
2802.12	0.8742
2811.95	0.8547
2821.78	0.8402
2831.61	0.8272
2841.45	0.818
2851.28	0.8086
2861.11	0.7902
2870.95	0.7666
2880.78	0.6594
2890.61	0.5812
2900.45	0.4709
2910.28	0.4444
2920.11	0.3871
2929.95	0.438
2939.78	0.382
2949.61	0.399
2959.45	0.383
2969.28	0.3558
2979.11	0.2938
2988.95	0.2531
2998.78	0.3263
3008.61	0.4953
3018.45	0.6397
3028.28	0.7374
3038.11	0.7944
3047.95	0.8062
3057.78	0.8182
3067.61	0.8294
3077.45	0.8484
3087.28	0.8634
3097.11	0.8765
3106.94	0.8826
3116.78	0.8932
3126.61	0.897
3136.44	0.898
3146.28	0.898
3156.11	0.897
3165.94	0.8944
3175.78	0.8913
3185.61	0.897
3195.44	0.8987
3205.28	0.906
3215.11	0.906
3224.94	0.9046
3234.78	0.904
3244.61	0.906
3254.44	0.908
3264.28	0.91
3274.11	0.911
3283.94	0.911
3293.78	0.91
3303.61	0.908
3313.44	0.908
3323.28	0.91
3333.11	0.91
3342.94	0.908
3352.78	0.906
3362.61	0.904
3372.44	0.902
3382.27	0.902
3392.11	0.9
3401.94	0.8984
3411.77	0.895
3421.61	0.8862
3431.44	0.8722
3441.27	0.8513
3451.11	0.84
3460.94	0.8453
3470.77	0.8619
3480.61	0.8878
3490.44	0.898
3500.27	0.9
3510.11	0.902
3519.94	0.904
3529.77	0.906
3539.61	0.908
3549.44	0.908
3559.27	0.906
3569.11	0.9048
3578.94	0.9078
3588.77	0.91
3598.61	0.91
3608.44	0.9068
3618.27	0.91
3628.11	0.91
3637.94	0.9082
3647.77	0.9028
3657.6	0.9079
3667.44	0.9009
3677.27	0.906
3687.1	0.908
3696.94	0.911
3706.77	0.908
3716.6	0.911
3726.44	0.9091
3736.27	0.906
3746.1	0.898
3755.94	0.9039
3765.77	0.908
3775.6	0.908
3785.44	0.908
3795.27	0.908
3805.1	0.905
3814.94	0.9
3824.77	0.9031
3834.6	0.9019
3844.44	0.9021
3854.27	0.898
3864.1	0.9
3873.94	0.902
3883.77	0.9
3893.6	0.9001
3903.44	0.904
3913.27	0.906
3923.1	0.9048
3932.93	0.904
3942.77	0.904
3952.6	0.902
3962.43	0.902
3972.27	0.9
3982.1	0.8988
