Infrared Spectrum: 2-Butanone
Formula: C 4 H 8 O
CAS: 78-93-3
State: gas
Origin: Sadtler Research Labs Under US-EPA Contract
1/CM	ABSORBANCE
450	0.0735861
462	0
474	0.0210132
486	0.0345958
498	0.0308406
510	0.0490574
522	0.0484182
534	0.0397892
546	0.0311602
558	0.0217323
570	0.0287633
582	0.0488976
594	0.045462
606	0.0381113
618	0.0166188
630	0.0143017
642	0.00990735
654	0.0147811
666	0.014062
678	0.0129435
690	0.00719082
702	0.00926817
714	0.0162193
726	0.0155801
738	0.0167786
750	0.0518538
762	0.0382711
774	0.0250081
786	0.0155002
798	0.012544
810	0.012544
822	0.0103068
834	0.00751041
846	0.0116651
858	0.0130234
870	0.0114254
882	0.0147811
894	0.0184564
906	0.0319592
918	0.055609
930	0.0829341
942	0.0936405
954	0.0845321
966	0.0612019
978	0.0466604
990	0.0384309
1002	0.0297221
1014	0.0224513
1026	0.0186162
1038	0.0174178
1050	0.0215725
1062	0.0296422
1074	0.0397892
1086	0.042266
1098	0.0394696
1110	0.0357144
1122	0.0390701
1134	0.0615215
1146	0.148371
1158	0.263024
1170	0.343482
1182	0.323906
1194	0.228588
1206	0.151487
1218	0.091643
1230	0.0524131
1242	0.0449826
1254	0.0465006
1266	0.043065
1278	0.0377918
1290	0.0371526
1302	0.0479388
1314	0.0698309
1326	0.098674
1338	0.153484
1350	0.2663
1362	0.341484
1374	0.339327
1386	0.176255
1398	0.116571
1410	0.119448
1422	0.12504
1434	0.139901
1446	0.133669
1458	0.146133
1470	0.111058
1482	0.0911636
1494	0.0556889
1506	0.0385108
1518	0.0371526
1530	0.0335572
1542	0.0272452
1554	0.0272452
1566	0.0222915
1578	0.0167786
1590	0.019575
1602	0.0169384
1614	0.0114254
1626	0.0147811
1638	0.0131033
1650	0.0158997
1662	0.0234101
1674	0.0332376
1686	0.0635988
1698	0.144216
1710	0.343002
1722	0.660357
1734	0.757513
1746	0.795305
1758	0.451424
1770	0.162433
1782	0.0547301
1794	0.0190956
1806	0.0107063
1818	0.0079099
1830	0.00615215
1842	0.00519337
1854	0.00711092
1866	0.00751041
1878	0.00695113
1890	0.00703102
1902	0.00623204
1914	0.00559286
1926	0.00503357
1938	0.00471398
1950	0.00423459
1962	0.00319592
1974	0.00343561
1986	0.00295623
1998	0.00303612
2010	0.00215725
2022	0.00239694
2034	0.00231704
2046	0.00255674
2058	0.00239694
2070	0.00295623
2082	0.0040748
2094	0.00495368
2106	0.00575266
2118	0.00567276
2130	0.00447429
2142	0.00295623
2154	0.00183765
2166	0.00183765
2178	0.00167786
2190	0.00135827
2202	0.000878878
2214	0.000639184
2226	0.000479388
2238	0.000479388
2250	0.000639184
2262	0.000559286
2274	0.00223714
2286	0.00335572
2298	0.00471398
2310	0.00535317
2322	0.00351551
2334	0.00263663
2346	0.00591245
2358	0.00439439
2370	0.00447429
2382	0.00351551
2394	0.00207735
2406	0.00159796
2418	0.00175776
2430	0.00135827
2442	0.00175776
2454	0.00175776
2466	0.00199745
2478	0.00223714
2490	0.00215725
2502	0.00247684
2514	0.00271653
2526	0.00287633
2538	0.00255674
2550	0.00199745
2562	0.00183765
2574	0.00175776
2586	0.00167786
2598	0.00143816
2610	0.00215725
2622	0.00183765
2634	0.00215725
2646	0.00263663
2658	0.00343561
2670	0.00319592
2682	0.00335572
2694	0.00367531
2706	0.00375521
2718	0.00447429
2730	0.00615215
2742	0.00695113
2754	0.0080697
2766	0.00862898
2778	0.00910837
2790	0.0115852
2802	0.0155801
2814	0.021173
2826	0.0262864
2838	0.0318793
2850	0.0361938
2862	0.0442635
2874	0.0708695
2886	0.11761
2898	0.168585
2910	0.19599
2922	0.21916
2934	0.221717
2946	0.232263
2958	0.239454
2970	0.279483
2982	0.302334
2994	0.316316
3006	0.221397
3018	0.131193
3030	0.0820552
3042	0.0531322
3054	0.0429052
3066	0.038351
3078	0.0331577
3090	0.0271653
3102	0.0214127
3114	0.0171781
3126	0.0135827
3138	0.0113455
3150	0.0104666
3162	0.00958776
3174	0.00950786
3186	0.00926817
3198	0.00719082
3210	0.00607225
3222	0.00527327
3234	0.0039949
3246	0.00439439
3258	0.00351551
3270	0.00255674
3282	0.00215725
3294	0.00199745
3306	0.00223714
3318	0.00239694
3330	0.00279643
3342	0.00239694
3354	0.00215725
3366	0.00295623
3378	0.00359541
3390	0.0041547
3402	0.003915
3414	0.00695113
3426	0.011745
3438	0.0171781
3450	0.0199745
3462	0.0201343
3474	0.0142218
3486	0.0080697
3498	0.00567276
3510	0.00543306
3522	0.003915
3534	0.00423459
3546	0.00591245
3558	0.00599235
3570	0.00663153
3582	0.00559286
3594	0.00503357
3606	0.00551296
3618	0.00511347
3630	0.00271653
3642	0.00663153
3654	0.00119847
3666	0.00679133
3678	0.00183765
3690	0.00175776
3702	0.00567276
3714	0.00311602
3726	0.00822949
3738	0.00551296
3750	0.000159796
3762	0.00495368
3774	0.00287633
3786	0.00303612
3798	0.00103867
3810	0.00519337
3822	0.000239694
3834	0.000878878
3846	0.00263663
3858	0.00199745
3870	0.00111857
3882	0.00303612
3894	0.00375521
3906	0.00143816
3918	0.00359541
3930	0.00455419
3942	0.00255674
3954	0.00423459
3966	0.00119847
