Infrared Spectrum: Ethanol, 2-bromo-
Formula: C 2 H 5 Br O
CAS: 540-51-2
State: gas
Origin: Sadtler Research Labs Under US-EPA Contract
1/CM	ABSORBANCE
450	0.122986
462	0.106351
474	0.0359588
486	0.0175072
498	0.0158364
510	0.0114778
522	0.0174346
534	0.0202677
546	0.0339974
558	0.0743875
570	0.114414
582	0.127272
594	0.0845576
606	0.0323266
618	0.0223017
630	0.0241905
642	0.0278227
654	0.0344333
666	0.056517
678	0.121533
690	0.122187
702	0.0403174
714	0.00711911
726	0.00508508
738	0.00239725
750	0.00348691
762	0.00639267
774	0.00770026
786	0.00392278
798	0.00770026
810	0.0072644
822	0.0154732
834	0.0201224
846	0.0198318
858	0.0174346
870	0.0230281
882	0.0344333
894	0.0633456
906	0.165919
918	0.180012
930	0.147831
942	0.0544104
954	0.0345059
966	0.0388645
978	0.0588416
990	0.0852841
1002	0.127926
1014	0.217859
1026	0.392205
1038	0.548026
1050	0.560448
1062	0.642899
1074	0.693823
1086	0.665637
1098	0.326099
1110	0.170278
1122	0.110855
1134	0.098142
1146	0.0910956
1158	0.101556
1170	0.139767
1182	0.161197
1194	0.167444
1206	0.145797
1218	0.13984
1230	0.121461
1242	0.156984
1254	0.284837
1266	0.297913
1278	0.276846
1290	0.15277
1302	0.0955269
1314	0.08325
1326	0.0945825
1338	0.122623
1350	0.153061
1362	0.169769
1374	0.239144
1386	0.236747
1398	0.220692
1410	0.125892
1422	0.151971
1434	0.142455
1446	0.116085
1458	0.0844123
1470	0.0634909
1482	0.0424241
1494	0.0308011
1506	0.0215026
1518	0.0138024
1530	0.00951636
1542	0.00276047
1554	0.00348691
1566	0.00210668
1578	0.00159817
1590	0.00283312
1602	0.00348691
1614	0.00276047
1626	0.00217932
1638	0.00239725
1650	0.00108966
1662	0.00305105
1674	0.00225196
1686	0.00203403
1698	0.00152552
1710	0.00406806
1722	0.00704647
1734	0.00770026
1746	0.00849935
1758	0.011841
1770	0.0110419
1782	0.0079182
1794	0.00406806
1806	0.00443128
1818	0.00472186
1830	0.004286
1842	0.00435864
1854	0.00261518
1866	0.0024699
1878	0.00355956
1890	0.00493979
1902	0.00588416
1914	0.00573888
1926	0.00355956
1938	0.00261518
1950	0.00217932
1962	0.00261518
1974	0.00312369
1986	0.00326898
1998	0.00414071
2010	0.00450393
2022	0.00486715
2034	0.00552094
2046	0.00755498
2058	0.00755498
2070	0.00806348
2082	0.00624738
2094	0.00457657
2106	0.00421335
2118	0.0047945
2130	0.0054483
2142	0.00697382
2154	0.00668325
2166	0.00595681
2178	0.00566623
2190	0.00523037
2202	0.00464922
2214	0.00464922
2226	0.00530301
2238	0.00588416
2250	0.00653796
2262	0.00552094
2274	0.00472186
2286	0.00414071
2298	0.0036322
2310	0.00276047
2322	0.00108966
2334	0.000145288
2346	0.00334162
2358	0.000145288
2370	0.00537566
2382	0.0079182
2394	0.00552094
2406	0.00624738
2418	0.00777291
2430	0.00966165
2442	0.0103881
2454	0.0100975
2466	0.0084267
2478	0.00632003
2490	0.00523037
2502	0.0054483
2514	0.0061021
2526	0.00711911
2538	0.00682854
2550	0.00682854
2562	0.00573888
2574	0.0054483
2586	0.00573888
2598	0.00675589
2610	0.00682854
2622	0.00646532
2634	0.0072644
2646	0.00799084
2658	0.00929843
2670	0.0127127
2682	0.0169261
2694	0.0195412
2706	0.0193959
2718	0.019178
2730	0.0215753
2742	0.0233187
2754	0.0243357
2766	0.0230281
2778	0.0207762
2790	0.0207762
2802	0.0243357
2814	0.0296388
2826	0.0384287
2838	0.0550642
2850	0.0857199
2862	0.153279
2874	0.220111
2886	0.246336
2898	0.212048
2910	0.204493
2922	0.235875
2934	0.307284
2946	0.288687
2958	0.286799
2970	0.281713
2982	0.237328
2994	0.14369
3006	0.0888436
3018	0.0692297
3030	0.0632003
3042	0.0400268
3054	0.0249169
3066	0.0167808
3078	0.0117683
3090	0.00937108
3102	0.00828142
3114	0.00762762
3126	0.00777291
3138	0.00777291
3150	0.00711911
3162	0.00878992
3174	0.0079182
3186	0.00958901
3198	0.0106787
3210	0.00828142
3222	0.00523037
3234	0.00581152
3246	0.00370484
3258	0.00501244
3270	0.00668325
3282	0.00733704
3294	0.00690118
3306	0.00435864
3318	0.00464922
3330	0.00421335
3342	0.00406806
3354	0.00348691
3366	0.00305105
3378	0.00406806
3390	0.00261518
3402	0.0018161
3414	0.00326898
3426	0.00290576
3438	0.00174346
3450	0.00239725
3462	0.00399542
3474	0.00799084
3486	0.0110419
3498	0.0084267
3510	0.00588416
3522	0.00595681
3534	0.00704647
3546	0.0072644
3558	0.00552094
3570	0.0117683
3582	0.0182336
3594	0.0419156
3606	0.134682
3618	0.165265
3630	0.166573
3642	0.108603
3654	0.111073
3666	0.133956
3678	0.114269
3690	0.0496885
3702	0.0226649
3714	0.0178704
3726	0.0162723
3738	0.0185242
3750	0.0177251
3762	0.0202677
3774	0.0152552
3786	0.00878992
3798	0.00813613
3810	0.010606
3822	0.0103154
3834	0.011623
3846	0.00929843
3858	0.012858
3870	0.012858
3882	0.0106787
3894	0.0105334
3906	0.0119136
3918	0.00878992
3930	0.00784555
3942	0.0120589
3954	0.0135118
3966	0.0100249
