Infrared Spectrum: N-PROPYL BROMIDE
Formula: C3 H7 Br
CAS: 106-94-5
State: LIQUID
Class: COBLENTZ
Instrument: Not specified, most likely a prism, grating, or hybrid spectrometer.
Sampling: TRANSMISSION
Path length: 0.0036 CM
Resolution: 4
Origin: CONTINENTAL OIL CO. (HAROLD F. SMITH)
MICROMETERS	TRANSMITTANCE
12	0.454
12.0371	0.354
12.0743	0.302
12.1114	0.35
12.1485	0.436
12.1857	0.638
12.2228	0.796
12.26	0.841
12.2971	0.892
12.3342	0.919
12.3714	0.939
12.4085	0.944
12.4456	0.939
12.4828	0.945
12.5199	0.944
12.557	0.939
12.5942	0.928
12.6313	0.903
12.6685	0.885
12.7056	0.854
12.7427	0.802
12.7799	0.722
12.817	0.607
12.8541	0.442
12.8913	0.267
12.9284	0.133
12.9655	0.082
13.0027	0.069
13.0398	0.124
13.077	0.226
13.1141	0.4
13.1512	0.524
13.1884	0.596
13.2255	0.667
13.2626	0.709
13.2998	0.748
13.3369	0.765
13.374	0.785
13.4112	0.791
13.4483	0.782
13.4855	0.763
13.5226	0.74
13.5597	0.709
13.5969	0.67
13.634	0.63
13.6711	0.596
13.7083	0.604
13.7454	0.655
13.7825	0.717
13.8197	0.77
13.8568	0.815
13.894	0.854
13.9311	0.866
13.9682	0.889
14.0054	0.897
14.0425	0.9
14.0796	0.908
14.1168	0.909
14.1539	0.922
14.191	0.92
14.2282	0.917
14.2653	0.917
14.3025	0.92
14.3396	0.92
14.3767	0.925
14.4139	0.92
14.451	0.919
14.4881	0.92
14.5253	0.92
14.5624	0.92
14.5995	0.923
14.6367	0.922
14.6738	0.922
14.711	0.92
14.7481	0.913
14.7852	0.906
14.8224	0.903
14.8595	0.899
14.8966	0.892
14.9338	0.889
14.9709	0.871
15.008	0.861
15.0452	0.855
15.0823	0.852
15.1195	0.824
15.1566	0.79
15.1937	0.767
15.2309	0.712
15.268	0.67
15.3051	0.597
15.3423	0.507
15.3794	0.422
15.4165	0.304
15.4537	0.22
15.4908	0.147
15.5279	0.107
15.5651	0.086
15.6022	0.091
15.6394	0.111
15.6765	0.15
15.7136	0.206
15.7508	0.277
15.7879	0.408
15.825	0.468
15.8622	0.532
15.8993	0.582
15.9364	0.613
15.9736	0.645
16.0107	0.672
16.0479	0.684
16.085	0.704
16.1221	0.715
16.1593	0.718
16.1964	0.729
16.2335	0.748
16.2707	0.771
16.3078	0.781
16.3449	0.801
16.3821	0.815
16.4192	0.822
16.4564	0.83
16.4935	0.84
16.5306	0.841
16.5678	0.843
16.6049	0.852
16.642	0.854
16.6792	0.854
16.7163	0.857
16.7534	0.86
16.7906	0.855
16.8277	0.857
16.8649	0.858
16.902	0.852
16.9391	0.852
16.9763	0.85
17.0134	0.85
17.0505	0.841
17.0877	0.832
17.1248	0.822
17.1619	0.812
17.1991	0.805
17.2362	0.787
17.2734	0.77
17.3105	0.751
17.3476	0.72
17.3848	0.698
17.4219	0.67
17.459	0.622
17.4962	0.563
17.5333	0.501
17.5704	0.439
17.6076	0.358
17.6447	0.296
17.6819	0.211
17.719	0.159
17.7561	0.119
17.7933	0.083
17.8304	0.072
17.8675	0.072
17.9047	0.076
17.9418	0.091
17.9789	0.118
18.0161	0.158
18.0532	0.201
18.0904	0.26
18.1275	0.319
18.1646	0.391
18.2018	0.439
18.2389	0.475
18.276	0.512
18.3132	0.549
18.3503	0.579
18.3874	0.604
18.4246	0.625
18.4617	0.65
18.4989	0.661
18.536	0.683
18.5731	0.7
18.6103	0.718
18.6474	0.723
18.6845	0.734
18.7217	0.742
18.7588	0.754
18.7959	0.768
18.8331	0.779
18.8702	0.781
18.9074	0.79
18.9445	0.807
18.9816	0.818
19.0188	0.824
19.0559	0.835
19.093	0.843
19.1302	0.857
19.1673	0.864
19.2044	0.872
19.2416	0.877
19.2787	0.881
19.3159	0.885
19.353	0.883
19.3901	0.886
19.4273	0.892
19.4644	0.903
19.5015	0.905
19.5387	0.913
19.5758	0.913
19.6129	0.917
19.6501	0.922
19.6872	0.925
19.7244	0.931
19.7615	0.931
19.7986	0.93
19.8358	0.933
19.8729	0.933
19.91	0.945
19.9472	0.945
19.9843	0.951
20.0214	0.947
20.0586	0.95
20.0957	0.947
20.1329	0.945
20.17	0.944
20.2071	0.95
20.2443	0.947
20.2814	0.951
20.3185	0.958
20.3557	0.953
20.3928	0.951
20.4299	0.951
20.4671	0.953
20.5042	0.954
20.5414	0.95
20.5785	0.954
20.6156	0.954
20.6528	0.951
20.6899	0.953
20.727	0.954
20.7642	0.951
20.8013	0.951
20.8384	0.962
20.8756	0.961
20.9127	0.961
20.9499	0.958
20.987	0.961
21.0241	0.961
21.0613	0.964
21.0984	0.962
21.1355	0.967
21.1727	0.964
21.2098	0.964
21.2469	0.967
21.2841	0.968
21.3212	0.967
21.3584	0.97
21.3955	0.965
21.4326	0.967
21.4698	0.972
21.5069	0.97
21.544	0.968
21.5812	0.97
21.6183	0.968
21.6554	0.965
21.6926	0.97
21.7297	0.973
21.7668	0.965
21.804	0.972
21.8411	0.973
21.8783	0.975
21.9154	0.965
21.9525	0.97
21.9897	0.972
22.0268	0.975
22.0639	0.978
22.1011	0.975
22.1382	0.981
22.1753	0.982
22.2125	0.981
22.2496	0.975
22.2868	0.979
22.3239	0.979
22.361	0.981
22.3982	0.97
22.4353	0.975
22.4724	0.978
22.5096	0.973
22.5467	0.979
22.5838	0.972
22.621	0.975
22.6581	0.976
22.6953	0.972
22.7324	0.972
22.7695	0.978
22.8067	0.973
22.8438	0.972
22.8809	0.965
22.9181	0.967
22.9552	0.97
22.9923	0.97
23.0295	0.967
23.0666	0.975
23.1038	0.97
23.1409	0.97
23.178	0.967
23.2152	0.964
23.2523	0.959
23.2894	0.954
23.3266	0.951
23.3637	0.956
23.4008	0.954
23.438	0.945
23.4751	0.947
23.5123	0.948
23.5494	0.942
23.5865	0.94
23.6237	0.947
23.6608	0.939
23.6979	0.934
23.7351	0.919
23.7722	0.92
23.8093	0.916
23.8465	0.911
23.8836	0.902
23.9208	0.894
23.9579	0.881
23.995	0.878
24.0322	0.881
24.0693	0.886
24.1064	0.889
24.1436	0.892
24.1807	0.886
24.2178	0.88
24.255	0.88
24.2921	0.874
24.3293	0.869
24.3664	0.844
24.4035	0.835
24.4407	0.83
24.4778	0.827
24.5149	0.813
24.5521	0.802
24.5892	0.795
24.6263	0.776
24.6635	0.767
24.7006	0.753
24.7378	0.74
24.7749	0.731
24.812	0.717
24.8492	0.711
24.8863	0.706
24.9234	0.7
24.9606	0.697
24.9977	0.69
25.0348	0.683
25.072	0.686
25.1091	0.695
25.1463	0.7
25.1834	0.698
25.2205	0.703
25.2577	0.714
25.2948	0.717
25.3319	0.72
25.3691	0.728
25.4062	0.731
25.4433	0.736
25.4805	0.734
25.5176	0.734
25.5548	0.728
25.5919	0.729
25.629	0.723
25.6662	0.725
25.7033	0.726
25.7404	0.726
25.7776	0.717
25.8147	0.714
25.8518	0.711
25.889	0.703
25.9261	0.701
25.9633	0.694
