Infrared Spectrum: 2-Amylamine
Formula: C 5 H 13 N
CAS: 63493-28-7
State: gas
Origin: EPA-IR VAPOR PHASE LIBRARY
1/CM	ABSORBANCE
549.9	0.0053
559.547	0.00604
569.193	0.00621
578.84	0.00658
588.486	0.00654
598.133	0.00644
607.779	0.00651
617.426	0.00671
627.072	0.00705
636.719	0.00762
646.365	0.0081
656.012	0.00857
665.658	0.00932
675.305	0.01013
684.951	0.01112
694.598	0.01222
704.245	0.01364
713.891	0.01594
723.538	0.0189
733.184	0.02288
742.831	0.02749
752.477	0.03307
762.124	0.04094
771.77	0.05029
781.417	0.05746
791.063	0.05638
800.71	0.04719
810.356	0.03453
820.003	0.02501
829.649	0.01971
839.296	0.01656
848.943	0.01417
858.589	0.01197
868.236	0.01048
877.882	0.00993
887.529	0.00947
897.175	0.00905
906.822	0.00793
916.468	0.00651
926.115	0.0058
935.761	0.00568
945.408	0.00572
955.054	0.00568
964.701	0.00543
974.347	0.0052
983.994	0.00534
993.64	0.00595
1003.29	0.00681
1012.93	0.00773
1022.58	0.00801
1032.23	0.00783
1041.87	0.0074
1051.52	0.00718
1061.17	0.0071
1070.81	0.00688
1080.46	0.00676
1090.11	0.00681
1099.75	0.0077
1109.4	0.00936
1119.05	0.01128
1128.69	0.01339
1138.34	0.01614
1147.99	0.01822
1157.63	0.017
1167.28	0.01297
1176.92	0.00846
1186.57	0.00615
1196.22	0.00563
1205.86	0.00574
1215.51	0.00564
1225.16	0.00571
1234.8	0.00597
1244.45	0.00603
1254.1	0.00586
1263.74	0.00565
1273.39	0.00553
1283.04	0.00553
1292.68	0.00555
1302.33	0.00617
1311.98	0.00754
1321.62	0.00969
1331.27	0.01213
1340.92	0.01469
1350.56	0.01729
1360.21	0.02127
1369.86	0.02596
1379.5	0.02655
1389.15	0.02249
1398.79	0.0153
1408.44	0.0099
1418.09	0.00819
1427.73	0.00957
1437.38	0.01337
1447.03	0.01818
1456.67	0.02163
1466.32	0.02084
1475.97	0.01723
1485.61	0.01273
1495.26	0.00892
1504.91	0.00661
1514.55	0.00554
1524.2	0.00509
1533.85	0.00489
1543.49	0.00496
1553.14	0.00512
1562.79	0.00548
1572.43	0.00642
1582.08	0.00798
1591.73	0.01064
1601.37	0.01479
1611.02	0.01913
1620.67	0.0206
1630.31	0.01832
1639.96	0.01335
1649.6	0.00883
1659.25	0.00596
1668.9	0.00444
1678.54	0.00365
1688.19	0.003067
1697.84	0.0027433
1707.48	0.0025475
1717.13	0.0025052
1726.78	0.0023288
1736.42	0.002246
1746.07	0.00217517
1755.72	0.00209728
1765.36	0.0020724
1775.01	0.001975
1784.66	0.001976
1794.3	0.001902
1803.95	0.00191
1813.6	0.001903
1823.24	0.001878
1832.89	0.001823
1842.54	0.001786
1852.18	0.001793
1861.83	0.001698
1871.47	0.001626
1881.12	0.001538
1890.77	0.00151
1900.41	0.00148
1910.06	0.001405
1919.71	0.001433
1929.35	0.001417
1939	0.001362
1948.65	0.001367
1958.29	0.001302
1967.94	0.001338
1977.59	0.001265
1987.23	0.001247
1996.88	0.001212
2006.53	0.001198
2016.17	0.001314
2025.82	0.0013
2035.47	0.001298
2045.11	0.001364
2054.76	0.001277
2064.41	0.001281
2074.05	0.001267
2083.7	0.001252
2093.35	0.001182
2102.99	0.001238
2112.64	0.001204
2122.28	0.001224
2131.93	0.001243
2141.58	0.001313
2151.22	0.001258
2160.87	0.001323
2170.52	0.001287
2180.16	0.001348
2189.81	0.001332
2199.46	0.001375
2209.1	0.001341
2218.75	0.001337
2228.4	0.001368
2238.04	0.001342
2247.69	0.001316
2257.34	0.001334
2266.98	0.001349
2276.63	0.001355
2286.28	0.001291
2295.92	0.001311
2305.57	0.001293
2315.22	0.001357
2324.86	0.001461
2334.51	0.001462
2344.16	0.001548
2353.8	0.00163
2363.45	0.001555
2373.09	0.001547
2382.74	0.00158
2392.39	0.00158
2402.03	0.001595
2411.68	0.001508
2421.33	0.001571
2430.97	0.001497
2440.62	0.001512
2450.27	0.001483
2459.91	0.00146
2469.56	0.001377
2479.21	0.001413
2488.85	0.001443
2498.5	0.001477
2508.15	0.001525
2517.79	0.001565
2527.44	0.001654
2537.09	0.001733
2546.73	0.001771
2556.38	0.0020275
2566.03	0.0022262
2575.67	0.002429
2585.32	0.0026525
2594.96	0.0027869
2604.61	0.0029589
2614.26	0.0030807
2623.9	0.00329
2633.55	0.00347
2643.2	0.00368
2652.84	0.00384
2662.49	0.00382
2672.14	0.00391
2681.78	0.00387
2691.43	0.00386
2701.08	0.00414
2710.72	0.00434
2720.37	0.00489
2730.02	0.00532
2739.66	0.00558
2749.31	0.00576
2758.96	0.00563
2768.6	0.00573
2778.25	0.00618
2787.9	0.00725
2797.54	0.0087
2807.19	0.011
2816.84	0.01442
2826.48	0.01984
2836.13	0.02782
2845.77	0.03729
2855.42	0.04714
2865.07	0.05866
2874.71	0.07299
2884.36	0.08014
2894.01	0.0865
2903.65	0.09477
2913.3	0.10998
2922.95	0.12354
2932.59	0.13153
2942.24	0.13392
2951.89	0.15058
2961.53	0.17319
2971.18	0.16213
2980.83	0.1165
2990.47	0.05925
3000.12	0.02763
3009.77	0.015
3019.41	0.01046
3029.06	0.00857
3038.71	0.00716
3048.35	0.00624
3058	0.00529
3067.64	0.00468
3077.29	0.00433
3086.94	0.00421
3096.58	0.00379
3106.23	0.0033
3115.88	0.0030727
3125.52	0.0027357
3135.17	0.0028348
3144.82	0.0026804
3154.46	0.0024514
3164.11	0.0023943
3173.76	0.0023396
3183.4	0.00219792
3193.05	0.0020202
3202.7	0.001874
3212.34	0.001569
3221.99	0.001359
3231.64	0.00104
3241.28	0.00086
3250.93	0.00049
3260.58	0.00088
3270.22	0.00046
3279.87	0.00043
3289.52	0.00058
3299.16	0.00076
3308.81	0.001224
3318.45	0.001666
3328.1	0.0023601
3337.75	0.0022679
3347.39	0.001994
3357.04	0.00124
3366.69	0.0008
3376.33	0.00048
3385.98	0.00056
3395.63	0.0005
3405.27	0.00042
3414.92	0.00043
3424.57	0.00034
3434.21	0.00012
3443.86	0.00052
3453.51	0.0002
3463.15	0.00023
3472.8	0.00018
3482.45	0.0001
3492.09	0.00019
3501.74	0.00025
3511.39	0.00012
3521.03	0.00033
3530.68	0.00012
3540.33	0.00016
3549.97	0.00024
3559.62	0.0003
3569.26	0.00031
3578.91	0.00021
3588.56	0.00025
3598.2	0.0003
3607.85	0.00034
3617.5	0.00035
3627.14	0.00038
3636.79	0.00029
3646.44	0.00051
3656.08	0.00041
3665.73	0.00055
3675.38	0.00032
3685.02	0.00042
3694.67	0.00044
3704.32	0.00057
3713.96	0.00045
3723.61	0.00061
3733.26	0.00053
3742.9	0.00062
3752.55	0.00057
3762.2	0.0006
3771.84	0.00076
3781.49	0.00065
3791.13	0.00057
3800.78	0.0005
3810.43	0.00062
3820.07	0.00055
3829.72	0.00064
3839.37	0.00051
3849.01	0.00076
3858.66	0.00065
3868.31	0.00056
3877.95	0.00057
3887.6	0.00062
3897.25	0.00072
3906.89	0.00068
3916.54	0.00072
3926.19	0.00078
3935.83	0.00088
3945.48	0.00083
3955.13	0.00082
3964.77	0.00083
3974.42	0.00093
3984.07	0.00087
3993.71	0.00083
