Infrared Spectrum: Acetaldehyde
Formula: C2 H4 O
CAS: 75-07-0
State: GAS (100 mmHg, N2 ADDED, TOTAL PRESSURE 600 mmHg)
Class: COBLENTZ
Instrument: DOW KBr FOREPRISM-GRATING
Instrument parameters: GRATING CHANGED AT 5.0, 7.5, 15.0 MICRON
Sampling: TRANSMISSION
Path length: 5 CM
Resolution: 2
Origin: DOW CHEMICAL COMPANY
1/CM	TRANSMITTANCE
387	0.9245
396	0.9207
405	0.9162
414	0.9109
423	0.9047
432	0.8975
441	0.8887
450	0.8775
459	0.8585
468	0.8235
477	0.7669
486	0.6518
495	0.499
504	0.6042
513	0.4971
522	0.4977
531	0.5416
540	0.738
549	0.8405
558	0.8661
567	0.8852
576	0.8978
585	0.9066
594	0.9125
603	0.918
612	0.9233
621	0.9297
630	0.9368
639	0.9428
648	0.9485
657	0.9498
666	0.9411
675	0.9435
684	0.9507
693	0.9505
702	0.9487
711	0.9453
720	0.9406
729	0.938
738	0.9298
747	0.9254
756	0.9218
765	0.9144
774	0.9182
783	0.9066
792	0.9202
801	0.9202
810	0.9193
819	0.9182
828	0.9144
837	0.8924
846	0.8556
855	0.806
864	0.8338
873	0.8321
882	0.7444
891	0.7547
900	0.7382
909	0.7154
918	0.7497
927	0.7239
936	0.7249
945	0.8075
954	0.8645
963	0.8731
972	0.8731
981	0.872
990	0.869
999	0.8634
1008	0.8633
1017	0.8641
1026	0.8478
1035	0.834
1044	0.8224
1053	0.8032
1062	0.7685
1071	0.71
1080	0.5967
1089	0.4894
1098	0.3791
1107	0.3218
1116	0.3739
1125	0.3131
1134	0.3578
1143	0.5146
1152	0.6762
1161	0.7644
1170	0.8093
1179	0.8325
1188	0.8451
1197	0.8521
1206	0.8545
1215	0.8532
1224	0.8516
1233	0.8507
1242	0.8509
1251	0.85
1260	0.8492
1269	0.8494
1278	0.8503
1287	0.8494
1296	0.8431
1305	0.829
1314	0.7937
1323	0.7303
1332	0.54
1341	0.3759
1350	0.4109
1359	0.4543
1368	0.1981
1377	0.2464
1386	0.3986
1395	0.3964
1404	0.3288
1413	0.2713
1422	0.2998
1431	0.3939
1440	0.3907
1449	0.3875
1458	0.4501
1467	0.5484
1476	0.5967
1485	0.6343
1494	0.6764
1503	0.7004
1512	0.7183
1521	0.7361
1530	0.7591
1539	0.7626
1548	0.7596
1557	0.7607
1566	0.7841
1575	0.8068
1584	0.8138
1593	0.8175
1602	0.8182
1611	0.8198
1620	0.821
1629	0.8259
1638	0.8316
1647	0.8331
1656	0.8257
1665	0.8118
1674	0.7765
1683	0.6761
1692	0.6306
1701	0.4629
1710	0.2253
1719	0.0421
1728	0.0058
1737	0.0062
1746	0.0068
1755	0.0076
1764	0.0102
1773	0.0338
1782	0.1218
1791	0.1887
1800	0.3332
1809	0.5562
1818	0.629
1827	0.6568
1836	0.7031
1845	0.7418
1854	0.7805
1863	0.8215
1872	0.8477
1881	0.8525
1890	0.857
1899	0.8668
1908	0.8706
1917	0.865
1926	0.8608
1935	0.8621
1944	0.859
1953	0.8512
1962	0.8439
1971	0.8404
1980	0.8406
1989	0.8342
1998	0.801
2007	0.8048
2016	0.8084
2025	0.8087
2034	0.8108
2043	0.8154
2052	0.8255
2061	0.8297
2070	0.8308
2079	0.8318
2088	0.8324
2097	0.8324
2106	0.8325
2115	0.8327
2124	0.8328
2133	0.8324
2142	0.832
2151	0.8313
2160	0.8307
2169	0.8296
2178	0.8268
2187	0.8221
2196	0.8175
2205	0.815
2214	0.8142
2223	0.8145
2232	0.8144
2241	0.8143
2250	0.8143
2259	0.8143
2268	0.8146
2277	0.815
2286	0.8161
2295	0.8221
2304	0.8303
2313	0.8352
2322	0.8377
2331	0.839
2340	0.8387
2349	0.8381
2358	0.8388
2367	0.8392
2376	0.8384
2385	0.8371
2394	0.8364
2403	0.8384
2412	0.8365
2421	0.8337
2430	0.8291
2439	0.8249
2448	0.8213
2457	0.8203
2466	0.8218
2475	0.8225
2484	0.8295
2493	0.8324
2502	0.8317
2511	0.8305
2520	0.8307
2529	0.8309
2538	0.8316
2547	0.8321
2556	0.8328
2565	0.8331
2574	0.8331
2583	0.8321
2592	0.8292
2601	0.8236
2610	0.8151
2619	0.8032
2628	0.7867
2637	0.7633
2646	0.728
2655	0.6068
2664	0.4659
2673	0.3597
2682	0.2964
2691	0.2107
2700	0.1451
2709	0.1878
2718	0.1807
2727	0.1095
2736	0.1198
2745	0.1616
2754	0.1829
2763	0.2145
2772	0.2197
2781	0.2126
2790	0.2006
2799	0.2125
2808	0.2068
2817	0.1745
2826	0.2119
2835	0.2138
2844	0.2858
2853	0.3609
2862	0.4364
2871	0.5117
2880	0.587
2889	0.6565
2898	0.6639
2907	0.6767
2916	0.6807
2925	0.6675
2934	0.638
2943	0.6203
2952	0.6401
2961	0.5835
2970	0.5791
2979	0.5854
2988	0.5628
2997	0.5615
3006	0.6029
3015	0.6129
3024	0.5903
3033	0.6528
3042	0.7006
3051	0.7278
3060	0.7475
3069	0.7603
3078	0.7675
3087	0.7743
3096	0.7808
3105	0.7876
3114	0.7954
3123	0.8033
3132	0.8153
3141	0.8259
3150	0.8307
3159	0.8351
3168	0.8388
3177	0.8414
3186	0.8437
3195	0.8461
3204	0.8483
3213	0.8502
3222	0.852
3231	0.8531
3240	0.8544
3249	0.8555
3258	0.8566
3267	0.8575
3276	0.8575
3285	0.8575
3294	0.8578
3303	0.858
3312	0.8585
3321	0.8592
3330	0.8606
3339	0.8624
3348	0.862
3357	0.8604
3366	0.858
3375	0.855
3384	0.8518
3393	0.8483
3402	0.8436
3411	0.8356
3420	0.8225
3429	0.8033
3438	0.785
3447	0.7624
3456	0.7411
3465	0.7367
3474	0.7214
3483	0.7249
3492	0.7558
3501	0.7975
3510	0.8214
3519	0.8315
3528	0.8381
3537	0.8435
3546	0.8475
3555	0.849
3564	0.8478
3573	0.8492
3582	0.8502
3591	0.8497
3600	0.8496
3609	0.8508
3618	0.8352
3627	0.8606
3636	0.8559
3645	0.8452
3654	0.8601
3663	0.8328
3672	0.8406
3681	0.8577
3690	0.8571
3699	0.8545
3708	0.85
3717	0.8491
3726	0.8473
3735	0.8425
3744	0.8346
3753	0.856
3762	0.8608
