Infrared Spectrum: Acetaldehyde
Formula: C2 H4 O
CAS: 75-07-0
State: SOLUTION (10% CCl4 FOR 2.6-7.5, 10% CS2 FOR 7.5-22)
Class: COBLENTZ III
Instrument: DOW KBr FOREPRISM-GRATING
Instrument parameters: BLAZED AT 3.5, 12.0, 20.0 AND CHANGED AT 5.0, 7.5, 14.9 MICRON
Sampling: TRANSMISSION
Path length: 0.011 CM, 0.011 CM
Resolution: 2
Origin: DOW CHEMICAL COMPANY
1/CM	TRANSMITTANCE
3800	0.9245
3791	0.926
3782	0.9247
3773	0.9263
3764	0.9262
3755	0.9262
3746	0.9273
3737	0.9298
3728	0.9313
3719	0.927
3710	0.9242
3701	0.9186
3692	0.9096
3683	0.9022
3674	0.9021
3665	0.9052
3656	0.9088
3647	0.9108
3638	0.9098
3629	0.9083
3620	0.9079
3611	0.9059
3602	0.9029
3593	0.9013
3584	0.8973
3575	0.8774
3566	0.8836
3557	0.8849
3548	0.8823
3539	0.8771
3530	0.8734
3521	0.868
3512	0.8642
3503	0.8599
3494	0.8552
3485	0.8484
3476	0.8394
3467	0.82
3458	0.7899
3449	0.7305
3440	0.686
3431	0.6897
3422	0.7826
3413	0.839
3404	0.8631
3395	0.877
3386	0.8859
3377	0.8887
3368	0.8894
3359	0.8906
3350	0.8916
3341	0.8922
3332	0.8925
3323	0.8928
3314	0.8932
3305	0.8951
3296	0.8933
3287	0.8923
3278	0.8921
3269	0.8911
3260	0.8902
3251	0.8892
3242	0.8882
3233	0.8872
3224	0.8862
3215	0.886
3206	0.8843
3197	0.8849
3188	0.8851
3179	0.8827
3170	0.8803
3161	0.8752
3152	0.87
3143	0.8607
3134	0.8529
3125	0.8435
3116	0.8358
3107	0.8351
3098	0.8353
3089	0.8343
3080	0.8292
3071	0.8281
3062	0.8217
3053	0.8167
3044	0.8111
3035	0.7947
3026	0.7552
3017	0.7106
3008	0.6173
2999	0.553
2990	0.6014
2981	0.6592
2972	0.6682
2963	0.6674
2954	0.6556
2945	0.67
2936	0.6763
2927	0.6828
2918	0.6822
2909	0.6544
2900	0.6578
2891	0.65
2882	0.6105
2873	0.5595
2864	0.4982
2855	0.3756
2846	0.2811
2837	0.2118
2828	0.1969
2819	0.2114
2810	0.254
2801	0.2983
2792	0.4087
2783	0.4331
2774	0.4486
2765	0.4333
2756	0.3209
2747	0.261
2738	0.2438
2729	0.1817
2720	0.1551
2711	0.1773
2702	0.3727
2693	0.5321
2684	0.6111
2675	0.6898
2666	0.7356
2657	0.7657
2648	0.7898
2639	0.8099
2630	0.8277
2621	0.8432
2612	0.8553
2603	0.8688
2594	0.8784
2585	0.8857
2576	0.8924
2567	0.8967
2558	0.8992
2549	0.8983
2540	0.8927
2531	0.8894
2522	0.8907
2513	0.8923
2504	0.8967
2495	0.8964
2486	0.8982
2477	0.9006
2468	0.8996
2459	0.8774
2450	0.8682
2441	0.8846
2432	0.8968
2423	0.9018
2414	0.9057
2405	0.9106
2396	0.912
2387	0.9113
2378	0.9132
2369	0.9135
2360	0.9161
2351	0.9229
2342	0.9073
2333	0.8981
2324	0.9064
2315	0.9081
2306	0.9047
2297	0.9022
2288	0.8977
2279	0.8929
2270	0.8868
2261	0.8844
2252	0.8814
2243	0.8766
2234	0.8755
2225	0.8782
2216	0.8808
2207	0.8864
2198	0.8931
2189	0.8952
2180	0.8954
2171	0.9
2162	0.9014
2153	0.9013
2144	0.9005
2135	0.8997
2126	0.8987
2117	0.8977
2108	0.897
2099	0.8969
2090	0.8971
2081	0.8978
2072	0.8956
2063	0.8914
2054	0.8886
2045	0.8827
2036	0.8781
2027	0.8742
2018	0.8698
2009	0.8647
2000	0.8561
1991	0.8291
1982	0.8458
1973	0.851
1964	0.8619
1955	0.8682
1946	0.8671
1937	0.8674
1928	0.8687
1919	0.8673
1910	0.8644
1901	0.8604
1892	0.8536
1883	0.8447
1874	0.8333
1865	0.8154
1856	0.7951
1847	0.7758
1838	0.75
1829	0.7126
1820	0.6773
1811	0.6388
1802	0.5887
1793	0.527
1784	0.4506
1775	0.3537
1766	0.272
1757	0.1715
1748	0.0601
1739	0.0124
1730	0.0023
1721	0.0028
1712	0.0309
1703	0.1921
1694	0.3881
1685	0.4572
1676	0.6254
1667	0.6784
1658	0.7169
1649	0.7466
1640	0.7704
1631	0.7596
1622	0.7351
1613	0.7674
1604	0.7907
1595	0.796
1586	0.7889
1577	0.7713
1568	0.7543
1559	0.734
1550	0.742
1541	0.7155
1532	0.7155
1523	0.7144
1514	0.7136
1505	0.7016
1496	0.6926
1487	0.6859
1478	0.6664
1469	0.6301
1460	0.5758
1451	0.4972
1442	0.4086
1433	0.2653
1424	0.1389
1415	0.1976
1406	0.2625
1397	0.2212
1388	0.3079
1379	0.3821
1370	0.4034
1361	0.2761
1352	0.0661
1343	0.0902
1334	0.4971
1325	0.5926
1316	0.6905
1307	0.7603
1298	0.7948
1289	0.8078
1280	0.8255
1271	0.8391
1262	0.8493
1253	0.8526
1244	0.8552
1235	0.8679
1226	0.87
1217	0.8718
1208	0.8692
1199	0.8608
1190	0.8101
1181	0.6312
1172	0.5447
1163	0.6666
1154	0.6634
1145	0.6025
1136	0.5752
1127	0.5158
1118	0.2878
1109	0.0944
1100	0.1096
1091	0.4536
1082	0.604
1073	0.6808
1064	0.7611
1055	0.8151
1046	0.8408
1037	0.8591
1028	0.8449
1019	0.8268
1010	0.8725
1001	0.8887
992	0.8928
983	0.8834
974	0.8471
965	0.7973
956	0.7977
947	0.7273
938	0.7413
929	0.7449
920	0.7252
911	0.7262
902	0.722
893	0.7517
884	0.7598
875	0.7449
866	0.7572
857	0.7889
848	0.8475
839	0.8499
830	0.8815
821	0.8977
812	0.8901
803	0.903
794	0.898
785	0.8851
776	0.8472
767	0.8074
758	0.7874
749	0.833
740	0.8546
731	0.8707
722	0.886
713	0.8915
704	0.8931
695	0.8971
686	0.8955
677	0.8921
668	0.916
659	0.8743
650	0.8621
641	0.8728
632	0.8767
623	0.8829
614	0.8793
605	0.8758
596	0.8679
587	0.8572
578	0.8467
569	0.8373
560	0.8203
551	0.7965
542	0.7609
533	0.6798
524	0.4697
515	0.1776
506	0.4749
497	0.6185
488	0.6853
479	0.7165
470	0.7255
461	0.7235
