Infrared Spectrum: ACETALDEHYDE
Formula: C2 H4 O
CAS: 75-07-0
State: GAS (180 mmHg PRESSURE)
Class: COBLENTZ
Instrument: Not specified, most likely a prism, grating, or hybrid spectrometer.
Sampling: TRANSMISSION
Path length: 5 CM
Resolution: 4
Origin: WYANDOTTE CHEMICALS CORP., WYANDOTTE, MICHIGAN, USA
MICROMETERS	TRANSMITTANCE
2.143	0.982
2.18384	0.972
2.22467	0.977
2.26551	0.998
2.30634	0.993
2.34718	0.989
2.38801	0.982
2.42885	0.979
2.46968	0.977
2.51052	0.979
2.55135	0.981
2.59219	0.977
2.63302	0.991
2.67386	0.979
2.7147	0.974
2.75553	0.972
2.79637	0.962
2.8372	0.902
2.87804	0.85
2.91887	0.911
2.95971	0.943
3.00054	0.945
3.04138	0.943
3.08221	0.94
3.12305	0.928
3.16388	0.913
3.20472	0.88
3.24556	0.838
3.28639	0.701
3.32723	0.695
3.36806	0.618
3.4089	0.701
3.44973	0.621
3.49057	0.379
3.5314	0.241
3.57224	0.284
3.61307	0.291
3.65391	0.195
3.69474	0.274
3.73558	0.562
3.77642	0.797
3.81725	0.872
3.85809	0.904
3.89892	0.921
3.93976	0.918
3.98059	0.918
4.02143	0.918
4.06226	0.909
4.1031	0.909
4.14393	0.914
4.18477	0.919
4.2256	0.919
4.26644	0.928
4.30728	0.948
4.34811	0.954
4.38895	0.931
4.42978	0.908
4.47062	0.906
4.51145	0.906
4.55229	0.908
4.59312	0.909
4.63396	0.913
4.67479	0.918
4.71563	0.931
4.75646	0.923
4.7973	0.923
4.83814	0.921
4.87897	0.916
4.91981	0.908
4.96064	0.889
5.00148	0.884
5.04231	0.884
5.08315	0.875
5.12398	0.879
5.16482	0.887
5.20565	0.899
5.24649	0.909
5.28732	0.906
5.32816	0.902
5.369	0.88
5.40983	0.844
5.45067	0.8
5.4915	0.751
5.53234	0.684
5.57317	0.494
5.61401	0.241
5.65484	0.074
5.69568	0.032
5.73651	0.042
5.77735	0.045
5.81818	0.301
5.85902	0.579
5.89986	0.715
5.94069	0.797
5.98153	0.838
6.02236	0.858
6.0632	0.851
6.10403	0.85
6.14487	0.846
6.1857	0.841
6.22654	0.831
6.26737	0.838
6.30821	0.834
6.34904	0.821
6.38988	0.816
6.43071	0.809
6.47155	0.809
6.51239	0.792
6.55322	0.787
6.59406	0.77
6.63489	0.761
6.67573	0.729
6.71656	0.688
6.7574	0.643
6.79823	0.528
6.83907	0.458
6.8799	0.429
6.92074	0.425
6.96157	0.468
7.00241	0.395
7.04325	0.325
7.08408	0.228
7.12492	0.212
7.16575	0.262
7.20659	0.354
7.24742	0.272
7.28826	0.218
7.32909	0.293
7.36993	0.313
7.41076	0.151
7.4516	0.274
7.49243	0.487
7.53327	0.66
7.57411	0.768
7.61494	0.81
7.65578	0.831
7.69661	0.839
7.73745	0.85
7.77828	0.85
7.81912	0.853
7.85995	0.858
7.90079	0.856
7.94162	0.851
7.98246	0.851
8.02329	0.851
8.06413	0.85
8.10497	0.844
8.1458	0.839
8.18664	0.833
8.22747	0.816
8.26831	0.768
8.30914	0.568
8.34998	0.195
8.39081	0.071
8.43165	0.061
8.47248	0.143
8.51332	0.245
8.55415	0.412
8.59499	0.609
8.63583	0.7
8.67666	0.679
8.7175	0.613
8.75833	0.485
8.79917	0.371
8.84	0.275
8.88084	0.214
8.92167	0.149
8.96251	0.129
9.00334	0.127
9.04418	0.141
9.08501	0.247
9.12585	0.342
9.16669	0.441
9.20752	0.533
9.24836	0.597
9.28919	0.645
9.33003	0.681
9.37086	0.712
9.4117	0.747
9.45253	0.77
9.49337	0.781
9.5342	0.788
9.57504	0.802
9.61587	0.819
9.65671	0.821
9.69755	0.824
9.73838	0.827
9.77922	0.833
9.82005	0.834
9.86089	0.844
9.90172	0.841
9.94256	0.834
9.98339	0.839
10.0242	0.844
10.0651	0.844
10.1059	0.844
10.1467	0.841
10.1876	0.833
10.2284	0.826
10.2692	0.81
10.3101	0.787
10.3509	0.764
10.3917	0.712
10.4326	0.62
10.4734	0.516
10.5143	0.468
10.5551	0.456
10.5959	0.459
10.6368	0.495
10.6776	0.54
10.7184	0.575
10.7593	0.62
10.8001	0.659
10.8409	0.679
10.8818	0.691
10.9226	0.683
10.9634	0.712
11.0043	0.696
11.0451	0.691
11.0859	0.703
11.1268	0.7
11.1676	0.706
11.2085	0.712
11.2493	0.722
11.2901	0.718
11.331	0.713
11.3718	0.706
11.4126	0.701
11.4535	0.71
11.4943	0.713
11.5351	0.688
11.576	0.606
11.6168	0.667
11.6576	0.649
11.6985	0.623
11.7393	0.628
11.7801	0.635
11.821	0.657
11.8618	0.684
11.9027	0.708
11.9435	0.706
11.9843	0.708
12.0252	0.764
12.066	0.773
12.1068	0.78
12.1477	0.79
12.1885	0.802
12.2293	0.814
12.2702	0.814
12.311	0.817
12.3518	0.816
12.3927	0.812
12.4335	0.81
12.4744	0.81
12.5152	0.807
12.556	0.804
12.5969	0.804
12.6377	0.798
12.6785	0.797
12.7194	0.795
12.7602	0.792
12.801	0.79
12.8419	0.79
12.8827	0.788
12.9235	0.787
12.9644	0.788
13.0052	0.788
13.046	0.771
13.0869	0.756
13.1277	0.766
13.1686	0.783
13.2094	0.754
13.2502	0.744
13.2911	0.783
13.3319	0.788
13.3727	0.787
13.4136	0.795
13.4544	0.802
13.4952	0.807
13.5361	0.809
13.5769	0.809
13.6177	0.809
13.6586	0.81
13.6994	0.809
13.7402	0.814
13.7811	0.819
13.8219	0.817
13.8628	0.812
13.9036	0.81
13.9444	0.814
13.9853	0.819
14.0261	0.817
14.0669	0.819
14.1078	0.821
14.1486	0.819
14.1894	0.817
14.2303	0.821
14.2711	0.817
14.3119	0.817
14.3528	0.817
14.3936	0.816
14.4344	0.816
14.4753	0.812
14.5161	0.812
14.557	0.807
14.5978	0.805
14.6386	0.804
14.6795	0.797
14.7203	0.795
14.7611	0.79
14.802	0.79
14.8428	0.79
14.8836	0.79
14.9245	0.787
14.9653	0.785
15.0061	0.77
15.047	0.751
15.0878	0.749
15.1287	0.77
15.1695	0.773
15.2103	0.773
15.2512	0.764
15.292	0.761
15.3328	0.756
15.3737	0.752
15.4145	0.749
15.4553	0.746
15.4962	0.737
15.537	0.732
15.5778	0.729
15.6187	0.725
15.6595	0.722
15.7003	0.722
15.7412	0.718
15.782	0.715
15.8229	0.71
15.8637	0.705
15.9045	0.703
15.9454	0.695
15.9862	0.698
