Infrared Spectrum: PENTANE, 2-BROMO-
Formula: C5 H11 Br
CAS: 107-81-3
State: SOLUTION (10% CCl4 FOR 3800-1390, 10% CS2 FOR 1390-450)
Boiling point: 76.5-76.6 C
Class: COBLENTZ III
Instrument: DOW KBr FOREPRISM-GRATING
Instrument parameters: BLAZED AT 3.5, 12.0, 20.0 MICRON AND CHANGED AT 5.0, 7.5, 14.9 MICRON
Sampling: TRANSMISSION
Path length: 0.0109 CM, 0.0109 CM
Resolution: 2
Origin: DOW CHEMICAL COMPANY
1/CM	TRANSMITTANCE
3816	0.823
3807	0.8341
3798	0.8663
3789	0.8757
3780	0.8759
3771	0.8742
3762	0.8725
3753	0.8712
3744	0.8716
3735	0.872
3726	0.8724
3717	0.8725
3708	0.8724
3699	0.8723
3690	0.8721
3681	0.8721
3672	0.8724
3663	0.8728
3654	0.8732
3645	0.8738
3636	0.8748
3627	0.8757
3618	0.8767
3609	0.8773
3600	0.8778
3591	0.8784
3582	0.879
3573	0.8801
3564	0.8811
3555	0.8821
3546	0.8831
3537	0.8845
3528	0.886
3519	0.8874
3510	0.8888
3501	0.8898
3492	0.8901
3483	0.8904
3474	0.8907
3465	0.8915
3456	0.8924
3447	0.8933
3438	0.8952
3429	0.8974
3420	0.8997
3411	0.9009
3402	0.9021
3393	0.9025
3384	0.9016
3375	0.9007
3366	0.9
3357	0.8993
3348	0.8987
3339	0.8978
3330	0.8973
3321	0.8968
3312	0.8968
3303	0.8968
3294	0.8968
3285	0.8965
3276	0.8953
3267	0.8938
3258	0.8917
3249	0.8896
3240	0.8875
3231	0.8854
3222	0.884
3213	0.8807
3204	0.8804
3195	0.8811
3186	0.8812
3177	0.8812
3168	0.8812
3159	0.8809
3150	0.8806
3141	0.8801
3132	0.8797
3123	0.879
3114	0.8771
3105	0.8753
3096	0.8728
3087	0.8699
3078	0.867
3069	0.8631
3060	0.859
3051	0.853
3042	0.8455
3033	0.8374
3024	0.8246
3015	0.8034
3006	0.773
2997	0.6457
2988	0.3473
2979	0.2848
2970	0.0382
2961	0.0435
2952	0.2162
2943	0.2808
2934	0.1791
2925	0.1987
2916	0.3266
2907	0.4639
2898	0.4886
2889	0.4969
2880	0.3031
2871	0.2743
2862	0.39
2853	0.5903
2844	0.7205
2835	0.6307
2826	0.7034
2817	0.786
2808	0.8194
2799	0.8409
2790	0.8504
2781	0.8581
2772	0.8631
2763	0.865
2754	0.8642
2745	0.8605
2736	0.8474
2727	0.8309
2718	0.8478
2709	0.8549
2700	0.8581
2691	0.8617
2682	0.8662
2673	0.8695
2664	0.8698
2655	0.8702
2646	0.8704
2637	0.8698
2628	0.8692
2619	0.8689
2610	0.8688
2601	0.8688
2592	0.8695
2583	0.8699
2574	0.8694
2565	0.8743
2556	0.8764
2547	0.8745
2538	0.8757
2529	0.8768
2520	0.878
2511	0.8788
2502	0.8791
2493	0.8794
2484	0.8798
2475	0.8799
2466	0.8787
2457	0.8773
2448	0.8763
2439	0.8754
2430	0.8746
2421	0.8743
2412	0.8743
2403	0.8743
2394	0.8742
2385	0.8736
2376	0.8739
2367	0.8785
2358	0.8824
2349	0.877
2340	0.8738
2331	0.8741
2322	0.8598
2313	0.8587
2304	0.8614
2295	0.8598
2286	0.8546
2277	0.8571
2268	0.8613
2259	0.865
2250	0.8678
2241	0.8705
2232	0.8724
2223	0.8742
2214	0.8757
2205	0.8768
2196	0.8782
2187	0.8793
2178	0.8804
2169	0.8812
2160	0.8816
2151	0.882
2142	0.8824
2133	0.8825
2124	0.8828
2115	0.8831
2106	0.8835
2097	0.8839
2088	0.8844
2079	0.8847
2070	0.8839
2061	0.8821
2052	0.8818
2043	0.8832
2034	0.8841
2025	0.8844
2016	0.8832
2007	0.8796
1998	0.8306
1989	0.8761
1980	0.8747
1971	0.8738
1962	0.8753
1953	0.8785
1944	0.8791
1935	0.8771
1926	0.8758
1917	0.8748
1908	0.8738
1899	0.8737
1890	0.8744
1881	0.8745
1872	0.8743
1863	0.874
1854	0.8734
1845	0.8734
1836	0.8732
1827	0.8725
1818	0.8717
1809	0.8709
1800	0.8721
1791	0.873
1782	0.8731
1773	0.8739
1764	0.8748
1755	0.8748
1746	0.8748
1737	0.8749
1728	0.8749
1719	0.8744
1710	0.8732
1701	0.8727
1692	0.869
1683	0.8709
1674	0.8721
1665	0.8777
1656	0.8837
1647	0.8941
1638	0.8898
1629	0.8758
1620	0.8546
1611	0.829
1602	0.7893
1593	0.7157
1584	0.6461
1575	0.616
1566	0.5784
1557	0.4825
1548	0.448
1539	0.4889
1530	0.5882
1521	0.6433
1512	0.6824
1503	0.7291
1494	0.7618
1485	0.7789
1476	0.7594
1467	0.3384
1458	0.3959
1449	0.4575
1440	0.6125
1431	0.6911
1422	0.7871
1413	0.8268
1404	0.8371
1395	0.8344
1386	0.7585
1377	0.5214
1368	0.7825
1359	0.8288
1350	0.8378
1341	0.8287
1332	0.833
1323	0.8398
1314	0.8475
1305	0.7822
1296	0.8028
1287	0.7999
1278	0.8144
1269	0.7688
1260	0.7422
1251	0.3964
1242	0.6493
1233	0.8093
1224	0.8418
1215	0.8175
1206	0.7041
1197	0.3279
1188	0.5138
1179	0.7826
1170	0.8328
1161	0.8191
1152	0.7071
1143	0.4568
1134	0.6493
1125	0.7478
1116	0.7941
1107	0.8508
1098	0.864
1089	0.8703
1080	0.8592
1071	0.8252
1062	0.8334
1053	0.8555
1044	0.841
1035	0.8546
1026	0.765
1017	0.8238
1008	0.8645
999	0.8087
990	0.8248
981	0.7475
972	0.8278
963	0.8853
954	0.8955
945	0.8978
936	0.8913
927	0.7904
918	0.8045
909	0.8396
900	0.8721
891	0.8648
882	0.8178
873	0.7512
864	0.6858
855	0.6803
846	0.7508
837	0.8445
828	0.8792
819	0.8858
810	0.8723
801	0.8778
792	0.878
783	0.8843
774	0.883
765	0.8756
756	0.8128
747	0.7376
738	0.7339
729	0.8566
720	0.8785
711	0.8854
702	0.8888
693	0.89
684	0.891
675	0.8921
666	0.8871
657	0.8678
648	0.865
639	0.8818
630	0.8907
621	0.8574
612	0.6369
603	0.8568
594	0.8963
585	0.8952
576	0.8828
567	0.9023
558	0.9033
549	0.8838
540	0.764
531	0.6201
522	0.8495
513	0.8421
504	0.8808
495	0.9051
486	0.9025
477	0.9014
468	0.9003
459	0.8949
