Infrared Spectrum: Pentane, 2-bromo-
Formula: C 5 H 11 Br
CAS: 107-81-3
State: gas
Origin: Sadtler Research Labs Under US-EPA Contract
1/CM	ABSORBANCE
450	0.0593323
462	0.0158108
474	0.00740613
486	0.0133976
498	0.0125655
510	0.0256302
522	0.0342014
534	0.0566694
546	0.0615791
558	0.0478486
570	0.0198052
582	0.023217
594	0.0186402
606	0.0218023
618	0.0533408
630	0.0560037
642	0.00782221
654	0.008904
666	0.00457682
678	0.00449361
690	0.00432718
702	0.00407754
714	0.00948651
726	0.00798864
738	0.0159773
750	0.0446032
762	0.0422732
774	0.0122326
786	0.0101522
798	0.0137305
810	0.0187234
822	0.0165598
834	0.0170591
846	0.0263792
858	0.0310392
870	0.0306231
882	0.0171423
894	0.0111508
906	0.0209702
918	0.0317049
930	0.0262959
942	0.0107347
954	0.00632434
966	0.0102354
978	0.0307063
990	0.0421068
1002	0.0308728
1014	0.0210534
1026	0.0265456
1038	0.0252974
1050	0.0203877
1062	0.0203877
1074	0.0198884
1086	0.0161437
1098	0.0125655
1110	0.0203045
1122	0.038695
1134	0.0784717
1146	0.122326
1158	0.0893729
1170	0.0329531
1182	0.0549219
1194	0.156611
1206	0.187067
1218	0.0816339
1230	0.0411914
1242	0.0707327
1254	0.11467
1266	0.103603
1278	0.0614127
1290	0.0481815
1302	0.0510108
1314	0.0388614
1326	0.0211366
1338	0.021303
1350	0.0245484
1362	0.0328699
1374	0.0692349
1386	0.111009
1398	0.0687356
1410	0.024382
1422	0.0266288
1434	0.0560869
1446	0.11234
1458	0.154946
1470	0.135224
1482	0.0674041
1494	0.0229673
1506	0.0118165
1518	0.00757256
1530	0.00582505
1542	0.00599148
1554	0.0055754
1566	0.00490968
1578	0.00432718
1590	0.00316217
1602	0.00266288
1614	0.00307895
1626	0.00299574
1638	0.00307895
1650	0.0027461
1662	0.00316217
1674	0.00324538
1686	0.0044104
1698	0.00432718
1710	0.00307895
1722	0.00299574
1734	0.00382789
1746	0.00416075
1758	0.00341181
1770	0.00216359
1782	0.00141465
1794	0.00158108
1806	0.00124822
1818	0.00108179
1830	0.00083215
1842	0.000582505
1854	0.00049929
1866	0.00066572
1878	0.000748935
1890	0.00049929
1902	0.000582505
1914	0.000582505
1926	0.00083215
1938	0.00049929
1950	0.000748935
1962	0.000582505
1974	0.000748935
1986	0.000582505
1998	0.000582505
2010	0.000416075
2022	0.00033286
2034	0.000416075
2046	0.00099858
2058	0.000915365
2070	0.00108179
2082	0.000416075
2094	0.00016643
2106	0.00016643
2118	0.000249645
2130	0.000416075
2142	0.000416075
2154	0.000249645
2166	0.000915365
2178	0.00116501
2190	0.00108179
2202	0.00116501
2214	0.00133144
2226	0.00124822
2238	0.00108179
2250	0.00108179
2262	0.00141465
2274	0.00133144
2286	0.0016643
2298	0.00199716
2310	0.00158108
2322	0.00116501
2334	0.000915365
2346	0.000582505
2358	0.0016643
2370	0.00233002
2382	0.00216359
2394	0.00208037
2406	0.00307895
2418	0.00282931
2430	0.00299574
2442	0.00316217
2454	0.00299574
2466	0.00208037
2478	0.00233002
2490	0.00249645
2502	0.00241323
2514	0.00249645
2526	0.00241323
2538	0.0027461
2550	0.0027461
2562	0.00307895
2574	0.0033286
2586	0.00424396
2598	0.00424396
2610	0.00466004
2622	0.00432718
2634	0.00374467
2646	0.00432718
2658	0.00424396
2670	0.00515933
2682	0.00540897
2694	0.00632434
2706	0.00798864
2718	0.00940329
2730	0.0117333
2742	0.0158941
2754	0.0159773
2766	0.0114005
2778	0.0110676
2790	0.0136473
2802	0.017808
2814	0.0228841
2826	0.0349503
2838	0.0669881
2850	0.0922022
2862	0.112507
2874	0.20629
2886	0.338103
2898	0.296661
2910	0.229257
2922	0.302736
2934	0.416824
2946	0.456517
2958	0.492799
2970	0.78971
2982	0.693514
2994	0.353248
3006	0.141465
3018	0.0495129
3030	0.0308728
3042	0.0252974
3054	0.020887
3066	0.0182241
3078	0.0167262
3090	0.0138137
3102	0.0116501
3114	0.0099858
3126	0.00973615
3138	0.00940329
3150	0.0101522
3162	0.00990259
3174	0.00940329
3186	0.00915365
3198	0.0099858
3210	0.00940329
3222	0.00715649
3234	0.00615791
3246	0.0049929
3258	0.00416075
3270	0.00407754
3282	0.00416075
3294	0.00324538
3306	0.00324538
3318	0.00324538
3330	0.0022468
3342	0.0022468
3354	0.0033286
3366	0.0022468
3378	0.00257966
3390	0.00241323
3402	0.00257966
3414	0.00291253
3426	0.00266288
3438	0.00257966
3450	0.0016643
3462	0.00249645
3474	0.00257966
3486	0.00216359
3498	0.00241323
3510	0.00183073
3522	0.00266288
3534	0.00266288
3546	0.00149787
3558	0.0027461
3570	0.00199716
3582	0.00183073
3594	0.00216359
3606	0.00208037
3618	0.0016643
3630	0.00249645
3642	0.00108179
3654	0.0022468
3666	0.00249645
3678	0.00233002
3690	0.0033286
3702	0.00257966
3714	0.000915365
3726	0.00208037
3738	0.00316217
3750	0.0022468
3762	0.00108179
3774	0.00174751
3786	0.00183073
3798	0.00291253
3810	0.0016643
3822	0.00133144
3834	0.00158108
3846	0.00299574
3858	0.00299574
3870	0.00357824
3882	0.0022468
3894	0.00307895
3906	0.00124822
3918	0.00324538
3930	0.00216359
3942	0.00341181
3954	0.00307895
3966	0.00357824
