Infrared Spectrum: Tetramethylhydrazine
Formula: C 4 H 12 N 2
CAS: 6415-12-9
State: gas
Instrument: HP-GC/MS/IRD
Origin: NIST Mass Spectrometry Data Center
1/CM	ABSORBANCE
550	0.000481
562	0.000507
574	0.000221
586	0.0002015
598	0.0001365
610	0.0001365
622	3.9e-05
634	0.000208
646	0.000104
658	0.0002275
670	0.000455
682	0.001131
694	0.0021905
706	0.0036335
718	0.0036855
730	0.002782
742	0.001495
754	0.0007345
766	0.0006175
778	0.000546
790	0.000442
802	0.0003445
814	0.000234
826	0.0002925
838	0.000338
850	0.0009035
862	0.0025805
874	0.0070005
886	0.0111605
898	0.0111215
910	0.0067795
922	0.002197
934	0.0012415
946	0.0010725
958	0.0010595
970	0.001508
982	0.002457
994	0.0040235
1006	0.0065325
1018	0.008801
1030	0.0082355
1042	0.005473
1054	0.002418
1066	0.00247
1078	0.003432
1090	0.0039195
1102	0.0031915
1114	0.0027885
1126	0.004355
1138	0.007124
1150	0.0078585
1162	0.0056095
1174	0.003263
1186	0.0026
1198	0.0030615
1210	0.003809
1222	0.004303
1234	0.003939
1246	0.0029575
1258	0.0018005
1270	0.001131
1282	0.000832
1294	0.0007215
1306	0.000676
1318	0.000585
1330	0.0005655
1342	0.0005525
1354	0.000611
1366	0.000754
1378	0.0009555
1390	0.0013455
1402	0.0018655
1414	0.002873
1426	0.005395
1438	0.01105
1450	0.0182065
1462	0.020319
1474	0.014131
1486	0.008255
1498	0.003315
1510	0.0018265
1522	0.0012935
1534	0.000949
1546	0.000689
1558	0.000598
1570	0.00052
1582	0.000546
1594	0.000481
1606	0.0004485
1618	0.000429
1630	0.0004355
1642	0.0004485
1654	0.0005135
1666	0.0005135
1678	0.000507
1690	0.000507
1702	0.0004615
1714	0.0003705
1726	0.0003315
1738	0.0002925
1750	0.000221
1762	0.000182
1774	0.000143
1786	0.000104
1798	5.85e-05
1810	1.3e-05
1822	0
1834	7.8e-05
1846	0.0001365
1858	0.0002405
1870	0.0003055
1882	0.0003445
1894	0.0003055
1906	0.0002405
1918	0.0002275
1930	0.000182
1942	0.000117
1954	9.75e-05
1966	3.9e-05
1978	3.9e-05
1990	1.95e-05
2002	6.5e-06
2014	1.3e-05
2026	6.5e-06
2038	3.9e-05
2050	0.0001105
2062	0.0001755
2074	0.000247
2086	0.0003705
2098	0.0004095
2110	0.0004485
2122	0.0003965
2134	0.0003965
2146	0.000312
2158	0.0001755
2170	0.0001495
2182	0.00013
2194	0.000143
2206	0.000104
2218	0.0001105
2230	0.00013
2242	8.45e-05
2254	9.75e-05
2266	9.75e-05
2278	1.95e-05
2290	4.55e-05
2302	3.9e-05
2314	5.85e-05
2326	0.000104
2338	9.75e-05
2350	0.0001235
2362	0.0001625
2374	0.0002015
2386	0.000312
2398	0.0004355
2410	0.000442
2422	0.0004095
2434	0.0003965
2446	0.0004485
2458	0.000559
2470	0.000663
2482	0.0007085
2494	0.000728
2506	0.000637
2518	0.0007345
2530	0.000715
2542	0.0008255
2554	0.000897
2566	0.0009555
2578	0.0009555
2590	0.001118
2602	0.0011245
2614	0.0011765
2626	0.0012285
2638	0.0013065
2650	0.0015665
2662	0.0018655
2674	0.002158
2686	0.002314
2698	0.0025025
2710	0.002743
2722	0.0033215
2734	0.0044915
2746	0.0079105
2758	0.017303
2770	0.029211
2782	0.036829
2794	0.0360555
2806	0.039403
2818	0.0516425
2830	0.057772
2842	0.055484
2854	0.0483665
2866	0.041418
2878	0.035139
2890	0.0298805
2902	0.0259805
2914	0.0253045
2926	0.032318
2938	0.050609
2950	0.065
2962	0.058305
2974	0.0478855
2986	0.040612
2998	0.0314795
3010	0.0155285
3022	0.0066625
3034	0.003718
3046	0.0030485
3058	0.0029055
3070	0.0027495
3082	0.0024635
3094	0.0022815
3106	0.0020605
3118	0.001846
3130	0.0016185
3142	0.0014495
3154	0.001352
3166	0.001287
3178	0.0012415
3190	0.001157
3202	0.001235
3214	0.0010335
3226	0.000949
3238	0.0006305
3250	0.000455
3262	0.0003315
3274	0.0003185
3286	0.0002665
3298	0.000312
3310	0.000273
3322	0.000312
3334	0.0003315
3346	0.000299
3358	0.000221
3370	0.0002405
3382	0.0001105
3394	0.0002015
3406	0.0001755
3418	0.0002015
3430	0.0003185
3442	0.000416
3454	0.000273
3466	0.000182
3478	0.000156
3490	0.00013
3502	5.2e-05
3514	6.5e-06
3526	0.0001885
3538	3.25e-05
3550	3.9e-05
3562	1.95e-05
3574	9.75e-05
3586	6.5e-05
3598	4.55e-05
3610	9.75e-05
3622	4.55e-05
3634	0.0001235
3646	0.000169
3658	0.0001495
3670	0.0001885
3682	0.000234
3694	0.0001625
3706	0.0001625
3718	0.000182
3730	0.0001365
3742	0.000156
3754	0.0001625
3766	0.0002145
3778	0.000182
3790	0.000104
3802	0.0002405
3814	0.0002535
3826	0.00026
3838	0.0003575
