Infrared Spectrum: 1,3-CYCLOHEXADIENE
Formula: C6 H8
CAS: 592-57-4
State: LIQUID
Class: COBLENTZ
Instrument: Not specified, most likely a prism, grating, or hybrid spectrometer.
Sampling: TRANSMISSION
Path length: 0.00234 CM
Resolution: 4
Origin: US INDUSTRIAL CHEMICAL COMPANY, CINCINNATI, OHIO
MICROMETERS	TRANSMITTANCE
2.027	0.921
2.0669	0.924
2.10681	0.926
2.14671	0.918
2.18661	0.913
2.22651	0.901
2.26642	0.898
2.30632	0.894
2.34622	0.911
2.38613	0.911
2.42603	0.883
2.46593	0.893
2.50584	0.908
2.54574	0.913
2.58564	0.918
2.62554	0.923
2.66545	0.924
2.70535	0.914
2.74525	0.893
2.78516	0.901
2.82506	0.908
2.86496	0.908
2.90487	0.908
2.94477	0.911
2.98467	0.906
3.02457	0.906
3.06448	0.899
3.10438	0.883
3.14428	0.894
3.18419	0.874
3.22409	0.661
3.26399	0.106
3.3039	0.424
3.3438	0.624
3.3837	0.135
3.4236	0.278
3.46351	0.121
3.50341	0.302
3.54331	0.18
3.58322	0.636
3.62312	0.813
3.66302	0.859
3.70293	0.879
3.74283	0.888
3.78273	0.831
3.82263	0.889
3.86254	0.903
3.90244	0.901
3.94234	0.914
3.98225	0.904
4.02215	0.898
4.06205	0.908
4.10196	0.908
4.14186	0.898
4.18176	0.899
4.22166	0.909
4.26157	0.909
4.30147	0.896
4.34137	0.901
4.38128	0.893
4.42118	0.899
4.46108	0.913
4.50099	0.899
4.54089	0.896
4.58079	0.889
4.62069	0.906
4.6606	0.908
4.7005	0.894
4.7404	0.898
4.78031	0.904
4.82021	0.898
4.86011	0.913
4.90002	0.916
4.93992	0.913
4.97982	0.901
5.01972	0.898
5.05963	0.883
5.09953	0.876
5.13943	0.896
5.17934	0.891
5.21924	0.858
5.25914	0.846
5.29905	0.863
5.33895	0.889
5.37885	0.904
5.41875	0.913
5.45866	0.903
5.49856	0.893
5.53846	0.899
5.57837	0.901
5.61827	0.899
5.65817	0.891
5.69808	0.889
5.73798	0.873
5.77788	0.858
5.81778	0.789
5.85769	0.671
5.89759	0.687
5.93749	0.769
5.9774	0.809
6.0173	0.858
6.0572	0.854
6.09711	0.866
6.13701	0.851
6.17691	0.789
6.21681	0.726
6.25672	0.806
6.29662	0.764
6.33652	0.844
6.37643	0.901
6.41633	0.891
6.45623	0.906
6.49614	0.893
6.53604	0.888
6.57594	0.879
6.61584	0.859
6.65575	0.863
6.69565	0.858
6.73555	0.823
6.77546	0.808
6.81536	0.777
6.85526	0.694
6.89517	0.589
6.93507	0.34
6.97497	0.305
7.01487	0.43
7.05478	0.525
7.09468	0.515
7.13458	0.701
7.17449	0.746
7.21439	0.746
7.25429	0.477
7.2942	0.57
7.3341	0.781
7.374	0.816
7.4139	0.826
7.45381	0.826
7.49371	0.759
7.53361	0.701
7.57352	0.766
7.61342	0.791
7.65332	0.823
7.69323	0.834
7.73313	0.843
7.77303	0.854
7.81293	0.859
7.85284	0.858
7.89274	0.841
7.93264	0.824
7.97255	0.772
8.01245	0.676
8.05235	0.41
8.09226	0.572
8.13216	0.744
8.17206	0.777
8.21196	0.796
8.25187	0.818
8.29177	0.828
8.33167	0.828
8.37158	0.814
8.41148	0.803
8.45138	0.746
8.49129	0.644
8.53119	0.579
8.57109	0.419
8.61099	0.482
8.6509	0.634
8.6908	0.711
8.7307	0.749
8.77061	0.767
8.81051	0.797
8.85041	0.821
8.89032	0.829
8.93022	0.836
8.97012	0.846
9.01002	0.851
9.04993	0.848
9.08983	0.841
9.12973	0.828
9.16964	0.811
9.20954	0.797
9.24944	0.782
9.28935	0.777
9.32925	0.767
9.36915	0.736
9.40905	0.662
9.44896	0.569
9.48886	0.661
9.52876	0.724
9.56867	0.731
9.60857	0.739
9.64847	0.747
9.68838	0.751
9.72828	0.737
9.76818	0.682
9.80808	0.629
9.84799	0.654
9.88789	0.717
9.92779	0.741
9.9677	0.747
10.0076	0.674
10.0475	0.606
10.0874	0.644
10.1273	0.716
10.1672	0.734
10.2071	0.744
10.247	0.752
10.2869	0.762
10.3268	0.764
10.3667	0.752
10.4066	0.732
10.4465	0.709
10.4864	0.681
10.5263	0.649
10.5662	0.564
10.6061	0.507
10.646	0.559
10.686	0.634
10.7259	0.664
10.7658	0.604
10.8057	0.375
10.8456	0.232
10.8855	0.385
10.9254	0.564
10.9653	0.694
11.0052	0.751
11.0451	0.781
11.085	0.803
11.1249	0.819
11.1648	0.826
11.2047	0.833
11.2446	0.836
11.2845	0.839
11.3244	0.841
11.3643	0.828
11.4042	0.814
11.4441	0.826
11.484	0.838
11.5239	0.841
11.5638	0.839
11.6037	0.829
11.6436	0.819
11.6835	0.813
11.7234	0.791
11.7633	0.732
11.8032	0.721
11.8431	0.762
11.883	0.799
11.9229	0.818
11.9628	0.833
12.0027	0.843
12.0427	0.856
12.0826	0.854
12.1225	0.851
12.1624	0.848
12.2023	0.851
12.2422	0.846
12.2821	0.838
12.322	0.831
12.3619	0.819
12.4018	0.811
12.4417	0.806
12.4816	0.801
12.5215	0.797
12.5614	0.797
12.6013	0.787
12.6412	0.769
12.6811	0.757
12.721	0.766
12.7609	0.767
12.8008	0.766
12.8407	0.761
12.8806	0.751
12.9205	0.729
12.9604	0.707
13.0003	0.677
13.0402	0.646
13.0801	0.599
13.12	0.544
13.1599	0.472
13.1998	0.397
13.2397	0.328
13.2796	0.218
13.3195	0.135
13.3595	0.105
13.3994	0.176
13.4393	0.33
13.4792	0.49
13.5191	0.587
13.559	0.649
13.5989	0.697
13.6388	0.717
13.6787	0.737
13.7186	0.749
13.7585	0.751
13.7984	0.759
13.8383	0.736
13.8782	0.726
13.9181	0.727
13.958	0.737
13.9979	0.749
14.0378	0.761
14.0777	0.759
14.1176	0.752
14.1575	0.744
14.1974	0.742
14.2373	0.739
14.2772	0.727
14.3171	0.711
14.357	0.696
14.3969	0.676
14.4368	0.657
14.4767	0.624
14.5166	0.579
14.5565	0.549
14.5964	0.515
14.6363	0.459
14.6762	0.402
14.7162	0.345
14.7561	0.3
14.796	0.258
14.8359	0.228
14.8758	0.21
14.9157	0.178
14.9556	0.156
14.9955	0.138
15.0354	0.093
15.0753	0.073
15.1152	0.07
15.1551	0.068
15.195	0.073
15.2349	0.081
15.2748	0.091
15.3147	0.101
15.3546	0.105
15.3945	0.118
15.4344	0.148
15.4743	0.171
15.5142	0.222
15.5541	0.28
15.594	0.328
15.6339	0.397
15.6738	0.455
15.7137	0.499
15.7536	0.539
15.7935	0.579
15.8334	0.602
15.8733	0.632
15.9132	0.649
15.9531	0.662
15.993	0.682
