Infrared Spectrum: 1,3-Cyclohexadiene
Formula: C 6 H 8
CAS: 592-57-4
State: gas
Instrument: HP-GC/MS/IRD
Origin: NIST Mass Spectrometry Data Center
1/CM	ABSORBANCE
550	0.0001656
562	0.0004255
574	0.0003036
586	0.0003312
598	0.0003381
610	0.0008418
622	0.0029164
634	0.0075647
646	0.0118105
658	0.023
670	0.0156929
682	0.0092069
694	0.0040917
706	0.0010925
718	0.0007291
730	0.0016997
742	0.0032798
754	0.0032108
766	0.0025001
778	0.0010258
790	0.0003151
802	8.97e-05
814	0.0001265
826	0.0001403
838	0.0002737
850	0.0002806
862	0.0003381
874	0.0001541
886	0.0002093
898	0.0008257
910	0.0017089
922	0.0021574
934	0.0021137
946	0.0014812
958	0.0010304
970	0.0008625
982	0.000759
994	0.0008188
1006	0.0008694
1018	0.0006624
1030	0.0005957
1042	0.000598
1054	0.0006532
1066	0.0005888
1078	0.0003013
1090	0.0001311
1102	9.43e-05
1114	0.0001081
1126	0.0002415
1138	0.0004853
1150	0.0008441
1162	0.0014007
1174	0.0011201
1186	0.0006371
1198	0.000253
1210	0.000184
1222	0.0006141
1234	0.001012
1246	0.0010005
1258	0.0007521
1270	0.000161
1282	2.53e-05
1294	5.29e-05
1306	0.0002461
1318	0.000368
1330	0.0003565
1342	0.0003565
1354	0.0004186
1366	0.0005842
1378	0.0007521
1390	0.0009545
1402	0.0012696
1414	0.0018676
1426	0.0027807
1438	0.0024587
1450	0.0020723
1462	0.0010902
1474	0.0004209
1486	0.0002645
1498	0.0002392
1510	0.0002691
1522	0.0001817
1534	0.0001449
1546	8.28e-05
1558	0.0001978
1570	0.0004255
1582	0.0007705
1594	0.0010074
1606	0.0009591
1618	0.0007383
1630	0.0004347
1642	0.0002392
1654	0.0003105
1666	0.0005313
1678	0.0009545
1690	0.0013248
1702	0.0013984
1714	0.0011316
1726	0.0006578
1738	0.0002898
1750	0.000161
1762	0.0001058
1774	4.83e-05
1786	9.2e-05
1798	5.75e-05
1810	3.45e-05
1822	4.6e-05
1834	5.75e-05
1846	6.9e-05
1858	9.2e-05
1870	0.0001817
1882	0.0003128
1894	0.0003726
1906	0.000322
1918	0.0002668
1930	0.0002001
1942	0.0002139
1954	0.0002392
1966	0.0002093
1978	0.0001886
1990	0.000138
2002	0.0001035
2014	8.51e-05
2026	3.68e-05
2038	6.67e-05
2050	3.22e-05
2062	9.89e-05
2074	0.0001035
2086	8.28e-05
2098	0.0001104
2110	0.0001403
2122	9.2e-05
2134	9.66e-05
2146	6.9e-05
2158	0.0001012
2170	9.66e-05
2182	0.000115
2194	0.0001196
2206	9.2e-05
2218	0.0001288
2230	0.0001058
2242	9.43e-05
2254	0.0001035
2266	0.0001196
2278	8.28e-05
2290	0.0001035
2302	0.0001173
2314	0.000161
2326	0.0001978
2338	0.0001633
2350	0.0001173
2362	0.0001311
2374	9.43e-05
2386	6.44e-05
2398	0.0001219
2410	0.0001035
2422	0.0001127
2434	0.000115
2446	5.29e-05
2458	2.3e-06
2470	0.0001196
2482	0.0001242
2494	8.97e-05
2506	5.98e-05
2518	8.74e-05
2530	5.98e-05
2542	4.14e-05
2554	7.59e-05
2566	0.0001081
2578	0.0001081
2590	8.28e-05
2602	0.0001265
2614	0.0002645
2626	0.0002921
2638	0.0004048
2650	0.0004048
2662	0.0002829
2674	0.0002438
2686	0.0002553
2698	0.0003519
2710	0.0003174
2722	0.000299
2734	0.0003611
2746	0.0004554
2758	0.0004968
2770	0.0005106
2782	0.0007705
2794	0.0013984
2806	0.002806
2818	0.0063917
2830	0.00874
2842	0.0112125
2854	0.0089884
2866	0.0081535
2878	0.0091218
2890	0.0083168
2902	0.0069483
2914	0.007199
2926	0.0106697
2938	0.0150627
2950	0.0151961
2962	0.0117875
2974	0.0045678
2986	0.0018308
2998	0.0016928
3010	0.0026841
3022	0.0073646
3034	0.0148327
3046	0.0182114
3058	0.0176801
3070	0.0101522
3082	0.0044896
3094	0.0014375
3106	0.0006463
3118	0.0004692
3130	0.0004209
3142	0.0003726
3154	0.0003266
3166	0.0003151
3178	0.0001955
3190	0.0003289
3202	0.0003611
3214	0.0003818
3226	0.0003082
3238	0.0002898
3250	0.0001748
3262	0.0001886
3274	0.0001242
3286	0.0001771
3298	0.0001196
3310	0.0001104
3322	0.0001679
3334	0.0001472
3346	0.0002392
3358	0.0001242
3370	0.0001472
3382	7.82e-05
3394	7.82e-05
3406	7.36e-05
3418	0.0001449
3430	0.0001357
3442	0.0001311
3454	7.13e-05
3466	9.89e-05
3478	2.99e-05
3490	0.0001633
3502	4.6e-05
3514	0.0001219
3526	0.0001173
3538	0.0001242
3550	0.0001449
3562	2.99e-05
3574	4.37e-05
3586	0.0002185
3598	6.9e-05
3610	0.0002001
3622	0.0001679
3634	0.0001656
3646	8.28e-05
3658	6.9e-05
3670	3.91e-05
3682	2.99e-05
3694	0.000184
3706	0.0001012
3718	0.0001311
3730	0.0001932
3742	2.3e-05
3754	6.9e-05
3766	0.0002323
3778	0.0001334
3790	0.0001679
3802	0.0001173
3814	0.0001748
3826	0.0001909
3838	0.0001656
