Infrared Spectrum: ISOPROPANOL
Formula: C3 H8 O
CAS: 67-63-0
State: GAS (40 mmHg, N2 ADDED, TOTAL PRESSURE 600 mmHg)
Class: COBLENTZ
Instrument: DOW KBr FOREPRISM-GRATING
Instrument parameters: GRATING CHANGED AT 5.0, 7.5, 15.0 MICRON
Sampling: TRANSMISSION
Path length: 5 CM
Resolution: 2
Origin: DOW CHEMICAL COMPANY
1/CM	TRANSMITTANCE
457.677	0.891
466.095	0.884
474.513	0.871
482.93	0.868
491.348	0.891
499.766	0.913
508.184	0.934
516.602	0.953
525.019	0.966
533.437	0.976
541.855	0.979
550.273	0.979
558.691	0.986
567.109	0.989
575.526	0.988
583.944	0.991
592.362	0.992
600.78	0.992
609.198	0.994
617.615	0.992
626.033	0.992
634.451	0.997
642.869	1
651.287	0.998
659.704	0.998
668.122	0.998
676.54	1.001
684.958	1.001
693.376	0.998
701.793	0.992
710.211	0.986
718.629	0.972
727.047	0.937
735.465	0.91
743.882	0.834
752.3	0.8
760.718	0.838
769.136	0.856
777.554	0.975
785.972	0.978
794.389	0.96
802.807	0.907
811.225	0.894
819.643	0.904
828.061	0.91
836.478	0.966
844.896	1.008
853.314	1.019
861.732	1.021
870.15	1.023
878.567	1.023
886.985	1.017
895.403	1.008
903.821	0.98
912.239	0.9
920.656	0.857
929.074	0.755
937.492	0.541
945.91	0.496
954.328	0.446
962.745	0.506
971.163	0.6319
979.581	0.9099
987.999	0.991
996.417	1.007
1004.83	1.008
1013.25	1.007
1021.67	1
1030.09	0.991
1038.51	0.956
1046.92	0.868
1055.34	0.737
1063.76	0.617
1072.18	0.535
1080.59	0.562
1089.01	0.588
1097.43	0.708
1105.85	0.749
1114.27	0.723
1122.68	0.642
1131.1	0.575
1139.52	0.508
1147.94	0.442
1156.36	0.428
1164.77	0.486
1173.19	0.578
1181.61	0.693
1190.03	0.836
1198.44	0.929
1206.86	0.948
1215.28	0.931
1223.7	0.869
1232.12	0.7431
1240.53	0.655
1248.95	0.616
1257.37	0.592
1265.79	0.629
1274.2	0.743
1282.62	0.843
1291.04	0.918
1299.46	0.941
1307.88	0.939
1316.29	0.926
1324.71	0.898
1333.13	0.853
1341.55	0.809
1349.96	0.774
1358.38	0.727
1366.8	0.647
1375.22	0.484
1383.64	0.379
1392.05	0.404
1400.47	0.458
1408.89	0.679
1417.31	0.816
1425.72	0.885
1434.14	0.893
1442.56	0.875
1450.98	0.853
1459.4	0.795
1467.81	0.7961
1476.23	0.72
1484.65	0.862
1493.07	0.896
1501.49	0.937
1509.9	0.975
1518.32	0.983
1526.74	0.989
1535.16	0.989
1543.57	0.991
1551.99	0.994
1560.41	0.997
1568.83	0.994
1577.25	0.995
1585.66	0.994
1594.08	0.992
1602.5	0.992
1610.92	0.991
1619.33	0.991
1627.75	0.986
1636.17	0.983
1644.59	0.976
1653.01	0.983
1661.42	0.98
1669.84	0.986
1678.26	0.988
1686.68	0.997
1695.09	0.992
1703.51	0.994
1711.93	0.989
1720.35	0.991
1728.77	0.986
1737.18	0.988
1745.6	0.986
1754.02	0.979
1762.44	0.979
1770.86	0.978
1779.27	0.978
1787.69	0.983
1796.11	0.989
1804.53	0.988
1812.94	0.989
1821.36	0.988
1829.78	0.988
1838.2	0.985
1846.62	0.989
1855.03	0.985
1863.45	0.985
1871.87	0.985
1880.29	0.983
1888.7	0.978
1897.12	0.978
1905.54	0.979
1913.96	0.979
1922.38	0.979
1930.79	0.985
1939.21	0.986
1947.63	0.986
1956.05	0.986
1964.46	0.988
1972.88	0.985
1981.3	0.983
1989.72	0.986
1998.14	0.986
2006.55	0.984
2014.97	0.986
2023.39	0.986
2031.81	0.988
2040.22	0.9885
2048.64	0.988
2057.06	0.9869
2065.48	0.989
2073.9	0.988
2082.31	0.988
2090.73	0.986
2099.15	0.988
2107.57	0.988
2115.99	0.988
2124.4	0.988
2132.82	0.989
2141.24	0.9884
2149.66	0.986
2158.07	0.986
2166.49	0.986
2174.91	0.986
2183.33	0.986
2191.75	0.9854
2200.16	0.985
2208.58	0.986
2217	0.9881
2225.42	0.991
2233.83	0.991
2242.25	0.991
2250.67	0.992
2259.09	0.994
2267.51	0.992
2275.92	0.991
2284.34	0.991
2292.76	0.988
2301.18	0.986
2309.59	0.985
2318.01	0.986
2326.43	0.986
2334.85	0.9893
2343.27	0.9969
2351.68	1.0041
2360.1	1.01
2368.52	1.0067
2376.94	1
2385.36	0.9937
2393.77	0.992
2402.19	0.991
2410.61	0.991
2419.03	0.9912
2427.44	0.992
2435.86	0.992
2444.28	0.9926
2452.7	0.991
2461.12	0.991
2469.53	0.9918
2477.95	0.991
2486.37	0.9906
2494.79	0.988
2503.2	0.986
2511.62	0.986
2520.04	0.986
2528.46	0.9874
2536.88	0.989
2545.29	0.991
2553.71	0.991
2562.13	0.991
2570.55	0.991
2578.96	0.988
2587.38	0.9858
2595.8	0.983
2604.22	0.979
2612.64	0.976
2621.05	0.9745
2629.47	0.969
2637.89	0.9637
2646.31	0.959
2654.72	0.957
2663.14	0.9562
2671.56	0.9533
2679.98	0.9664
2688.4	0.9693
2696.81	0.972
2705.23	0.972
2713.65	0.9674
2722.07	0.9667
2730.49	0.9632
2738.9	0.9584
2747.32	0.957
2755.74	0.956
2764.16	0.9544
2772.57	0.951
2780.99	0.947
2789.41	0.9417
2797.83	0.9373
2806.25	0.9303
2814.66	0.9192
2823.08	0.9143
2831.5	0.8988
2839.92	0.8953
2848.33	0.8727
2856.75	0.8127
2865.17	0.7214
2873.59	0.6292
2882.01	0.57
2890.42	0.4614
2898.84	0.5196
2907.26	0.546
2915.68	0.5949
2924.09	0.6097
2932.51	0.576
2940.93	0.5497
2949.35	0.4782
2957.77	0.3238
2966.18	0.2456
2974.6	0.127
2983.02	0.1207
2991.44	0.1978
2999.86	0.2749
3008.27	0.4709
3016.69	0.7732
3025.11	0.9347
3033.53	0.9627
3041.94	0.9679
3050.36	0.97
3058.78	0.97
3067.2	0.97
3075.62	0.97
3084.03	0.97
3092.45	0.97
3100.87	0.969
3109.29	0.9681
3117.7	0.967
3126.12	0.966
3134.54	0.966
3142.96	0.966
3151.38	0.963
3159.79	0.9595
3168.21	0.957
3176.63	0.954
3185.05	0.951
3193.46	0.951
3201.88	0.953
3210.3	0.954
3218.72	0.954
3227.14	0.9565
3235.55	0.961
3243.97	0.963
3252.39	0.966
3260.81	0.9681
3269.22	0.97
3277.64	0.97
3286.06	0.969
3294.48	0.969
3302.9	0.967
3311.31	0.966
3319.73	0.964
3328.15	0.963
3336.57	0.963
3344.99	0.961
3353.4	0.963
3361.82	0.9619
3370.24	0.9611
3378.66	0.9619
3387.07	0.96
3395.49	0.961
3403.91	0.961
3412.33	0.961
3420.75	0.961
3429.16	0.961
3437.58	0.963
3446	0.9636
3454.42	0.964
3462.83	0.966
3471.25	0.967
3479.67	0.9696
3488.09	0.9721
3496.51	0.9756
3504.92	0.976
3513.34	0.976
3521.76	0.976
3530.18	0.973
3538.59	0.972
3547.01	0.972
3555.43	0.973
3563.85	0.9737
3572.27	0.975
3580.68	0.978
3589.1	0.978
3597.52	0.9753
3605.94	0.9607
3614.36	0.9476
3622.77	0.9247
3631.19	0.8405
3639.61	0.8019
3648.03	0.777
3656.44	0.7903
3664.86	0.8285
3673.28	0.9165
3681.7	0.9624
3690.12	0.9756
3698.53	0.98
3706.95	0.982
3715.37	0.9844
3723.79	0.986
3732.2	0.986
3740.62	0.986
3749.04	0.9835
3757.46	0.9815
3765.88	0.98
3774.29	0.9798
3782.71	0.979
3791.13	0.978
3799.55	0.9775
3807.96	0.976
