Infrared Spectrum: Isopropyl Alcohol
Formula: C 3 H 8 O
CAS: 67-63-0
State: gas
Origin: Sadtler Research Labs Under US-EPA Contract
1/CM	ABSORBANCE
450	0.0183084
462	0.0195381
474	0.0316982
486	0.0296487
498	0.0316982
510	0.0153026
522	0.00382564
534	0.00491868
546	0.00573846
558	0.00519194
570	0.00204945
582	0.00737802
594	0.0040989
606	0.0103839
618	0.0114769
630	0.00970073
642	0.013663
654	0.00942747
666	0.00696813
678	0.00833443
690	0.00642161
702	0.00587509
714	0.00314249
726	0.00327912
738	0.0027326
750	0.00300586
762	0.0013663
774	0.00532857
786	0.0240469
798	0.0521927
810	0.0717307
822	0.0681784
834	0.0640795
846	0.0207678
858	0.00601172
870	0.00437216
882	0.0068315
894	0.014756
906	0.0386663
918	0.115316
930	0.27203
942	0.376142
954	0.428472
966	0.370814
978	0.194288
990	0.0580678
1002	0.0332011
1014	0.0307417
1026	0.0416721
1038	0.0803384
1050	0.165732
1062	0.253312
1074	0.325863
1086	0.329688
1098	0.306461
1110	0.291295
1122	0.360293
1134	0.467821
1146	0.555811
1158	0.504165
1170	0.368764
1182	0.231998
1194	0.125426
1206	0.0979637
1218	0.132531
1230	0.210957
1242	0.258504
1254	0.280501
1266	0.235413
1278	0.153435
1290	0.0912688
1302	0.0750099
1314	0.0837542
1326	0.114906
1338	0.155758
1350	0.218198
1362	0.328185
1374	0.475336
1386	0.496104
1398	0.418634
1410	0.201256
1422	0.108484
1434	0.0920886
1446	0.0972806
1458	0.142505
1470	0.127476
1482	0.0864868
1494	0.0668121
1506	0.0340209
1518	0.0158491
1530	0.00778791
1542	0.00423553
1554	0.00491868
1566	0.00355238
1578	0.00368901
1590	0.00368901
1602	0.00368901
1614	0.00382564
1626	0.00286923
1638	0.00355238
1650	0.00245934
1662	0.00437216
1674	0.00327912
1686	0.00437216
1698	0.00341575
1710	0.0040989
1722	0.00573846
1734	0.0068315
1746	0.00915421
1758	0.0105205
1770	0.00942747
1782	0.00724139
1794	0.00204945
1806	0.0013663
1818	0.00095641
1830	0.00068315
1842	0.00122967
1854	0.00191282
1866	0.00300586
1878	0.00505531
1890	0.00532857
1902	0.00587509
1914	0.00368901
1926	0.00177619
1938	0.00068315
1950	0.00040989
1962	0.00081978
1974	0.00081978
1986	0.00095641
1998	0.00177619
2010	0.0027326
2022	0.00300586
2034	0.00396227
2046	0.0040989
2058	0.00327912
2070	0.00327912
2082	0.00300586
2094	0.0027326
2106	0.00177619
2118	0.00177619
2130	0.00177619
2142	0.00245934
2154	0.00327912
2166	0.00396227
2178	0.00478205
2190	0.00491868
2202	0.00396227
2214	0.00232271
2226	0.00163956
2238	0.00150293
2250	0.00204945
2262	0.00327912
2274	0.00355238
2286	0.00642161
2298	0.00929084
2310	0.0103839
2322	0.00915421
2334	0.0081978
2346	0.00806117
2358	0.00519194
2370	0.0101106
2382	0.00997399
2394	0.00614835
2406	0.00587509
2418	0.00628498
2430	0.00669487
2442	0.00642161
2454	0.00710476
2466	0.00765128
2478	0.00833443
2490	0.00901758
2502	0.0095641
2514	0.00983736
2526	0.00874432
2538	0.00874432
2550	0.00874432
2562	0.00970073
2574	0.0107938
2586	0.0116136
2598	0.0150293
2610	0.0178985
2622	0.0217242
2634	0.0255498
2646	0.0278725
2658	0.0281458
2670	0.0260963
2682	0.0217242
2694	0.019948
2706	0.0213143
2718	0.0221341
2730	0.0266428
2742	0.0291022
2754	0.0303319
2766	0.0327912
2778	0.0357971
2790	0.0412623
2802	0.0463176
2814	0.0541055
2826	0.0650359
2838	0.0778791
2850	0.126793
2862	0.216012
2874	0.295667
2886	0.444047
2898	0.438992
2910	0.420411
2922	0.407567
2934	0.432024
2946	0.555538
2958	0.80557
2970	1.09523
2982	1.29143
2994	0.787672
3006	0.485036
3018	0.141685
3030	0.0386663
3042	0.0202212
3054	0.0153026
3066	0.0172154
3078	0.0157124
3090	0.0183084
3102	0.0181718
3114	0.0165322
3126	0.0170788
3138	0.0166689
3150	0.0174886
3162	0.0187183
3174	0.0207678
3186	0.0214509
3198	0.0204945
3210	0.0196747
3222	0.0168055
3234	0.0137996
3246	0.00929084
3258	0.00778791
3270	0.00437216
3282	0.00286923
3294	0.00341575
3306	0.00300586
3318	0.00519194
3330	0.00847106
3342	0.00833443
3354	0.00983736
3366	0.00997399
3378	0.00901758
3390	0.00874432
3402	0.0106571
3414	0.0116136
3426	0.0127066
3438	0.0144828
3450	0.0144828
3462	0.0140729
3474	0.0117502
3486	0.0105205
3498	0.00833443
3510	0.00710476
3522	0.00587509
3534	0.00847106
3546	0.00655824
3558	0.00765128
3570	0.00792454
3582	0.00942747
3594	0.0107938
3606	0.0161223
3618	0.0327912
3630	0.0627132
3642	0.122557
3654	0.135674
3666	0.129935
3678	0.0998765
3690	0.0405791
3702	0.0102472
3714	0.00628498
3726	0.00573846
3738	0.00642161
3750	0.00778791
3762	0.00587509
3774	0.00710476
3786	0.00601172
3798	0.00751465
3810	0.00901758
3822	0.0116136
3834	0.0103839
3846	0.0122967
3858	0.0117502
3870	0.0117502
3882	0.00901758
3894	0.00806117
3906	0.0113403
3918	0.00970073
3930	0.00915421
3942	0.00970073
3954	0.00751465
3966	0.00915421
