Infrared Spectrum: 2-PROPANOL
Formula: C3 H8 O
CAS: 67-63-0
State: SOLUTION (10% IN CCl4 FOR 3800-1333, 10% IN CS2 FOR 1333-400 CM^-^1)
Class: COBLENTZ II
Instrument: DOW KBr FOREPRISM-GRATING
Instrument parameters: BLAZED AT 3.5, 12.0, 20.0 MICRON, CHANGED AT 5.0, 7.5, 14.9 MICRON
Sampling: TRANSMISSION
Path length: 0.011, 0.010 CM
Resolution: 4
Origin: DOW CHEMICAL COMPANY
1/CM	TRANSMITTANCE
392.049	0.742
400.755	0.745
409.461	0.748
418.166	0.742
426.872	0.757
435.578	0.79
444.284	0.804
452.989	0.809
461.695	0.803
470.401	0.785
479.107	0.735
487.812	0.64
496.518	0.711
505.224	0.759
513.93	0.759
522.635	0.748
531.341	0.734
540.047	0.723
548.753	0.712
557.458	0.697
566.164	0.683
574.87	0.671
583.576	0.659
592.281	0.647
600.987	0.637
609.693	0.629
618.399	0.619
627.104	0.612
635.81	0.608
644.516	0.606
653.222	0.61
661.928	0.618
670.633	0.619
679.339	0.618
688.045	0.63
696.751	0.645
705.456	0.662
714.162	0.679
722.868	0.703
731.574	0.733
740.279	0.752
748.985	0.778
757.691	0.798
766.397	0.816
775.102	0.834
783.808	0.852
792.514	0.856
801.22	0.852
809.925	0.748
818.631	0.2879
827.337	0.6701
836.043	0.868
844.748	0.916
853.454	0.927
862.16	0.924
870.866	0.927
879.571	0.927
888.277	0.924
896.983	0.913
905.689	0.893
914.395	0.849
923.1	0.772
931.806	0.618
940.512	0.292
949.218	0.038
957.923	0.0651
966.629	0.5961
975.335	0.781
984.041	0.854
992.746	0.88
1001.45	0.886
1010.16	0.891
1018.86	0.886
1027.57	0.88
1036.28	0.867
1044.98	0.839
1053.69	0.782
1062.39	0.652
1071.1	0.554
1079.8	0.502
1088.51	0.407
1097.22	0.243
1105.92	0.139
1114.63	0.175
1123.33	0.112
1132.04	0.054
1140.74	0.176
1149.45	0.175
1158.16	0.072
1166.86	0.1491
1175.57	0.577
1184.27	0.7
1192.98	0.756
1201.68	0.779
1210.39	0.778
1219.1	0.764
1227.8	0.735
1236.51	0.685
1245.21	0.604
1253.92	0.567
1262.62	0.578
1271.33	0.536
1280.04	0.458
1288.74	0.34
1297.45	0.244
1306.15	0.251
1314.86	0.328
1323.57	0.439
1332.27	0.4029
1340.98	0.325
1349.68	0.4361
1358.39	0.467
1367.09	0.1919
1375.8	0.1309
1384.51	0.062
1393.21	0.279
1401.92	0.328
1410.62	0.321
1419.33	0.361
1428.03	0.441
1436.74	0.512
1445.45	0.532
1454.15	0.357
1462.86	0.27
1471.56	0.2291
1480.27	0.4991
1488.97	0.693
1497.68	0.792
1506.39	0.835
1515.09	0.875
1523.8	0.906
1532.5	0.934
1541.21	0.961
1549.91	0.971
1558.62	0.967
1567.33	0.957
1576.03	0.958
1584.74	0.957
1593.44	0.957
1602.15	0.95
1610.86	0.946
1619.56	0.943
1628.27	0.941
1636.97	0.943
1645.68	0.948
1654.38	0.949
1663.09	0.95
1671.8	0.954
1680.5	0.954
1689.21	0.957
1697.91	0.957
1706.62	0.954
1715.32	0.949
1724.03	0.946
1732.74	0.946
1741.44	0.943
1750.15	0.931
1758.85	0.915
1767.56	0.913
1776.26	0.952
1784.97	0.969
1793.68	0.978
1802.38	0.978
1811.09	0.98
1819.79	0.98
1828.5	0.98
1837.2	0.983
1845.91	0.983
1854.62	0.98
1863.32	0.978
1872.03	0.974
1880.73	0.968
1889.44	0.96
1898.15	0.949
1906.85	0.954
1915.56	0.969
1924.26	0.979
1932.97	0.983
1941.67	0.984
1950.38	0.984
1959.09	0.984
1967.79	0.984
1976.5	0.984
1985.2	0.986
1993.91	0.987
2002.61	0.987
2011.32	0.987
2020.03	0.9895
2028.73	0.989
2037.44	0.988
2046.14	0.986
2054.85	0.9835
2063.55	0.9795
2072.26	0.979
2080.97	0.9825
2089.67	0.986
2098.38	0.989
2107.08	0.989
2115.79	0.989
2124.49	0.99
2133.2	0.991
2141.91	0.991
2150.61	0.989
2159.32	0.987
2168.02	0.9851
2176.73	0.9791
2185.44	0.972
2194.14	0.969
2202.85	0.9745
2211.55	0.9795
2220.26	0.982
2228.96	0.984
2237.67	0.986
2246.38	0.984
2255.08	0.986
2263.79	0.9835
2272.49	0.979
2281.2	0.978
2289.9	0.976
2298.61	0.9731
2307.32	0.971
2316.02	0.967
2324.73	0.9606
2333.43	0.9566
2342.14	0.956
2350.84	0.956
2359.55	0.954
2368.26	0.956
2376.96	0.957
2385.67	0.945
2394.37	0.942
2403.08	0.942
2411.78	0.9439
2420.49	0.9507
2429.2	0.9564
2437.9	0.957
2446.61	0.9536
2455.31	0.9472
2464.02	0.938
2472.73	0.935
2481.43	0.9332
2490.14	0.9276
2498.84	0.9179
2507.55	0.9032
2516.25	0.9044
2524.96	0.9098
2533.67	0.913
2542.37	0.915
2551.08	0.9102
2559.78	0.8994
2568.49	0.8812
2577.19	0.872
2585.9	0.872
2594.61	0.872
2603.31	0.8706
2612.02	0.8662
2620.72	0.8636
2629.43	0.854
2638.13	0.8364
2646.84	0.8027
2655.55	0.7838
2664.25	0.82
2672.96	0.8488
2681.66	0.8468
2690.37	0.8296
2699.08	0.8102
2707.78	0.7966
2716.49	0.794
2725.19	0.8021
2733.9	0.811
2742.6	0.8083
2751.31	0.7999
2760.02	0.791
2768.72	0.7673
2777.43	0.7499
2786.13	0.7263
2794.84	0.7086
2803.54	0.6808
2812.25	0.6496
2820.96	0.6358
2829.66	0.5971
2838.37	0.5491
2847.07	0.4825
2855.78	0.3916
2864.48	0.3031
2873.19	0.2185
2881.9	0.1603
2890.6	0.1842
2899.31	0.2128
2908.01	0.2196
2916.72	0.1936
2925.42	0.1556
2934.13	0.1534
2942.84	0.233
2951.54	0.2332
2960.25	0.0925
2968.95	0.008
2977.66	0.011
2986.37	0.0473
2995.07	0.3171
3003.78	0.5191
3012.48	0.6553
3021.19	0.7176
3029.89	0.7623
3038.6	0.7853
3047.31	0.7933
3056.01	0.793
3064.72	0.787
3073.42	0.7804
3082.13	0.773
3090.83	0.7604
3099.54	0.7454
3108.25	0.723
3116.95	0.7004
3125.66	0.6735
3134.36	0.6477
3143.07	0.6209
3151.77	0.5905
3160.48	0.5581
3169.19	0.5258
3177.89	0.4904
3186.6	0.4498
3195.3	0.4107
3204.01	0.3706
3212.71	0.3358
3221.42	0.2837
3230.13	0.2471
3238.83	0.2122
3247.54	0.1798
3256.24	0.1497
3264.95	0.1199
3273.66	0.0976
3282.36	0.08
3291.07	0.0623
3299.77	0.0492
3308.48	0.038
3317.18	0.034
3325.89	0.031
3334.6	0.028
3343.3	0.027
3352.01	0.03
3360.71	0.032
3369.42	0.0343
3378.12	0.0413
3386.83	0.0475
3395.54	0.053
3404.24	0.0618
3412.95	0.0731
3421.65	0.085
3430.36	0.1058
3439.06	0.1203
3447.77	0.1358
3456.48	0.1548
3465.18	0.1808
3473.89	0.2068
3482.59	0.23
3491.3	0.2645
3500	0.3158
3508.71	0.3552
3517.42	0.4102
3526.12	0.4755
3534.83	0.5362
3543.53	0.6091
3552.24	0.6664
3560.95	0.7143
3569.65	0.7659
3578.36	0.8162
3587.06	0.841
3595.77	0.842
3604.47	0.8153
3613.18	0.739
3621.89	0.6638
3630.59	0.6213
3639.3	0.7317
3648	0.8798
3656.71	0.9457
3665.41	0.957
3674.12	0.958
3682.83	0.964
3691.53	0.9733
3700.24	0.9796
3708.94	0.989
3717.65	0.991
3726.35	0.994
3735.06	0.995
3743.77	0.997
3752.47	0.9966
3761.18	0.994
3769.88	0.994
3778.59	0.993
3787.29	0.99
