Infrared Spectrum: Butane, 1-chloro-3-methyl-
Formula: C 5 H 11 Cl
CAS: 107-84-6
State: gas
Origin: Sadtler Research Labs Under US-EPA Contract
1/CM	ABSORBANCE
450	0.0296048
462	0.00483925
474	0.0123828
486	0.0113865
498	0.0149448
510	0.00896685
522	0.00455459
534	0.0101055
546	0.00426993
558	0.00284662
570	0.00512392
582	0.00398527
594	0.00128098
606	0.00811287
618	0.0101055
630	0.00982084
642	0.0236269
654	0.0742968
666	0.136638
678	0.113153
690	0.0374331
702	0.0266159
714	0.0293202
726	0.0879606
738	0.178056
750	0.138915
762	0.0697422
774	0.0348711
786	0.0149448
798	0.00910918
810	0.00996317
822	0.0142331
834	0.0166527
846	0.0162257
858	0.0311705
870	0.0613447
882	0.0575017
894	0.0381447
906	0.0288932
918	0.0259042
930	0.0294625
942	0.021919
954	0.0199263
966	0.0226306
978	0.021065
990	0.019784
1002	0.0267582
1014	0.0411337
1026	0.0501005
1038	0.0495312
1050	0.0492465
1062	0.040849
1074	0.0269006
1086	0.0167951
1098	0.0128098
1110	0.0162257
1122	0.0209227
1134	0.0175067
1146	0.021065
1158	0.039141
1170	0.059779
1182	0.0459729
1194	0.0298895
1206	0.0244809
1218	0.0194993
1230	0.0247656
1242	0.0546551
1254	0.0650453
1266	0.0401373
1278	0.0754354
1290	0.154998
1302	0.164535
1314	0.103759
1326	0.0724465
1338	0.0647606
1350	0.0965004
1362	0.112868
1374	0.11358
1386	0.142189
1398	0.102336
1410	0.0371484
1422	0.0334478
1434	0.0552244
1446	0.10988
1458	0.17706
1470	0.190581
1482	0.130802
1494	0.0582134
1506	0.020211
1518	0.00839753
1530	0.00526625
1542	0.0059779
1554	0.00341594
1566	0.00398527
1578	0.00626256
1590	0.00398527
1602	0.00398527
1614	0.0041276
1626	0.00426993
1638	0.00384294
1650	0.00426993
1662	0.00298895
1674	0.0041276
1686	0.00498158
1698	0.00455459
1710	0.00270429
1722	0.00327361
1734	0.00270429
1746	0.00284662
1758	0.0041276
1770	0.00398527
1782	0.00156564
1794	0.00142331
1806	0.00199263
1818	0.00113865
1830	0.000853986
1842	0.00113865
1854	0.00170797
1866	0.00156564
1878	0.0018503
1890	0.00241963
1902	0.00256196
1914	0.0018503
1926	0.00170797
1938	0.00170797
1950	0.00128098
1962	0.000996317
1974	0.000853986
1986	0.00142331
1998	0.00128098
2010	0.00156564
2022	0.00199263
2034	0.0022773
2046	0.00256196
2058	0.00241963
2070	0.00156564
2082	0.000996317
2094	0.00142331
2106	0.00142331
2118	0.00142331
2130	0.00113865
2142	0.00156564
2154	0.00128098
2166	0.00113865
2178	0.00142331
2190	0.0018503
2202	0.0022773
2214	0.00213496
2226	0.00241963
2238	0.00156564
2250	0.00213496
2262	0.00241963
2274	0.0018503
2286	0.0022773
2298	0.00142331
2310	0.000426993
2322	0.000284662
2334	0.00213496
2346	0.00355827
2358	0.000142331
2370	0.00754354
2382	0.00640489
2394	0.00498158
2406	0.00441226
2418	0.00455459
2430	0.00355827
2442	0.00426993
2454	0.00384294
2466	0.00469692
2478	0.00483925
2490	0.00498158
2502	0.00441226
2514	0.00498158
2526	0.00469692
2538	0.00555091
2550	0.00483925
2562	0.00483925
2574	0.00583557
2586	0.00640489
2598	0.00811287
2610	0.00853986
2622	0.00925152
2634	0.00967851
2646	0.0109595
2658	0.0112441
2670	0.00868219
2682	0.00740121
2694	0.0102478
2706	0.0126675
2718	0.0145178
2730	0.0209227
2742	0.0241963
2754	0.0212073
2766	0.019784
2778	0.0203533
2790	0.0216343
2802	0.0267582
2814	0.0347288
2826	0.0493889
2838	0.0735851
2850	0.101624
2862	0.150729
2874	0.329212
2886	0.464995
2898	0.426566
2910	0.396534
2922	0.45247
2934	0.598929
2946	0.709947
2958	0.970128
2970	1.42331
2982	0.869073
2994	0.284093
3006	0.161119
3018	0.0893839
3030	0.0414183
3042	0.0253349
3054	0.0217766
3066	0.0207803
3078	0.020211
3090	0.0163681
3102	0.0146601
3114	0.0143754
3126	0.0145178
3138	0.0138061
3150	0.0159411
3162	0.0163681
3174	0.0172221
3186	0.018076
3198	0.0163681
3210	0.0146601
3222	0.0108172
3234	0.00768587
3246	0.0078282
3258	0.00540858
3270	0.00540858
3282	0.00398527
3294	0.00370061
3306	0.00341594
3318	0.00341594
3330	0.00398527
3342	0.00612023
3354	0.00583557
3366	0.00583557
3378	0.00341594
3390	0.00469692
3402	0.00270429
3414	0.0022773
3426	0.00270429
3438	0.00355827
3450	0.0022773
3462	0.00355827
3474	0.00441226
3486	0.00241963
3498	0.00341594
3510	0.00298895
3522	0.00213496
3534	0.00256196
3546	0.00241963
3558	0.00370061
3570	0.00213496
3582	0.00483925
3594	0.000711655
3606	0.00398527
3618	0.00384294
3630	0.0041276
3642	0.00540858
3654	0.0115288
3666	0.0135214
3678	0.0142331
3690	0.00640489
3702	0.0059779
3714	0.00483925
3726	0.000996317
3738	0.00327361
3750	0.00540858
3762	0.00455459
3774	0.00241963
3786	0.00398527
3798	0.00555091
3810	0.00284662
3822	0.00711655
3834	0.00740121
3846	0.00441226
3858	0.00839753
3870	0.00668956
3882	0.0041276
3894	0.00398527
3906	0
3918	0.00668956
3930	0.00469692
3942	0.00341594
3954	0.00384294
3966	0.00113865
