Infrared Spectrum: 1-Chloro-2,2-dimethylpropane
Formula: C 5 H 11 Cl
CAS: 753-89-9
State: gas
Instrument: HP-GC/MS/IRD
Origin: NIST Mass Spectrometry Data Center
1/CM	ABSORBANCE
550	0.0001089
562	2.64e-05
574	0.0001188
586	9.57e-05
598	0.0001287
610	5.61e-05
622	4.62e-05
634	0.0001485
646	9.57e-05
658	0.0001089
670	0.0001419
682	0.0001584
694	0.0004356
706	0.0018744
718	0.0033561
730	0.003465
742	0.0029667
754	0.0065703
766	0.0077979
778	0.004158
790	0.0007623
802	0.0003696
814	0.000165
826	0.0002013
838	0.0001617
850	0.0001683
862	0.00033
874	0.0007128
886	0.0017622
898	0.0033198
910	0.0032571
922	0.0013464
934	0.0005445
946	0.0003927
958	0.0002937
970	0.000132
982	0.0001254
994	0.0001386
1006	0.000132
1018	0.0001089
1030	0.0002013
1042	0.0002178
1054	0.0001815
1066	0.0001782
1078	0.0001584
1090	0.0002244
1102	0.0001485
1114	0.0001848
1126	0.0004092
1138	0.0006501
1150	0.0006666
1162	0.0006303
1174	0.0010098
1186	0.0018909
1198	0.0023166
1210	0.0017028
1222	0.0009636
1234	0.0012342
1246	0.0018018
1258	0.0019965
1270	0.0018216
1282	0.0028842
1294	0.0034419
1306	0.002244
1318	0.0005511
1330	0.0004092
1342	0.000858
1354	0.0026301
1366	0.0052041
1378	0.0059169
1390	0.0045408
1402	0.0028974
1414	0.0016368
1426	0.0013332
1438	0.0019437
1450	0.0029403
1462	0.0041448
1474	0.0053658
1486	0.0042735
1498	0.0022572
1510	0.000693
1522	0.0002475
1534	0.0001221
1546	7.59e-05
1558	6.93e-05
1570	0.0001089
1582	0.0001254
1594	0.0001485
1606	0.0001221
1618	8.58e-05
1630	9.9e-05
1642	9.57e-05
1654	0.0001056
1666	0.0001485
1678	0.0001221
1690	0.0001056
1702	0.0001056
1714	7.92e-05
1726	5.94e-05
1738	3.96e-05
1750	4.62e-05
1762	2.64e-05
1774	5.61e-05
1786	6.27e-05
1798	5.28e-05
1810	6.93e-05
1822	4.95e-05
1834	5.94e-05
1846	6.93e-05
1858	5.28e-05
1870	3.96e-05
1882	4.62e-05
1894	3.96e-05
1906	3.3e-05
1918	4.62e-05
1930	3.63e-05
1942	5.61e-05
1954	7.26e-05
1966	4.29e-05
1978	6.27e-05
1990	3.3e-05
2002	3.96e-05
2014	5.61e-05
2026	4.95e-05
2038	9.57e-05
2050	5.94e-05
2062	6.6e-05
2074	3.96e-05
2086	3.96e-05
2098	4.29e-05
2110	2.31e-05
2122	4.95e-05
2134	8.25e-05
2146	5.28e-05
2158	4.29e-05
2170	3.63e-05
2182	3.63e-05
2194	2.64e-05
2206	1.32e-05
2218	1.98e-05
2230	6.6e-06
2242	2.97e-05
2254	6.6e-06
2266	3.96e-05
2278	6.6e-05
2290	5.61e-05
2302	5.28e-05
2314	1.98e-05
2326	4.29e-05
2338	6.6e-06
2350	6.6e-06
2362	3.63e-05
2374	4.95e-05
2386	3.96e-05
2398	6.27e-05
2410	4.95e-05
2422	5.61e-05
2434	4.62e-05
2446	2.97e-05
2458	3.96e-05
2470	4.95e-05
2482	2.31e-05
2494	3.96e-05
2506	3.63e-05
2518	5.94e-05
2530	3.3e-05
2542	7.59e-05
2554	7.59e-05
2566	8.91e-05
2578	6.27e-05
2590	2.97e-05
2602	3.96e-05
2614	9.24e-05
2626	9.24e-05
2638	0.0001023
2650	0.0001518
2662	0.0001254
2674	0.0001122
2686	0.0001683
2698	0.0002805
2710	0.0002772
2722	0.0004521
2734	0.0005247
2746	0.0004851
2758	0.0004125
2770	0.000396
2782	0.0003762
2794	0.0004752
2806	0.0006336
2818	0.0008448
2830	0.0011583
2842	0.0018216
2854	0.003201
2866	0.0056661
2878	0.0079266
2890	0.008613
2902	0.0089199
2914	0.0095832
2926	0.0111111
2938	0.0154836
2950	0.0236313
2962	0.0316371
2974	0.0312411
2986	0.0203676
2998	0.0085305
3010	0.0025608
3022	0.0009603
3034	0.0006501
3046	0.000627
3058	0.0005841
3070	0.0006567
3082	0.000627
3094	0.0006699
3106	0.0005742
3118	0.0004521
3130	0.0003762
3142	0.0003762
3154	0.0004026
3166	0.0004851
3178	0.0005742
3190	0.0004917
3202	0.0005049
3214	0.0004917
3226	0.000396
3238	0.0002904
3250	0.0002838
3262	0.0002112
3274	0.0001947
3286	0.0002244
3298	0.0002211
3310	0.0001848
3322	0.0001353
3334	0.0002079
3346	0.0001749
3358	0.0002145
3370	0.000231
3382	0.0002442
3394	0.0001254
3406	0.0001551
3418	0.0001353
3430	0.0001353
3442	0.000132
3454	0.0001617
3466	6.93e-05
3478	9.24e-05
3490	7.26e-05
3502	0.0001551
3514	0.0001485
3526	5.94e-05
3538	8.25e-05
3550	0.000165
3562	0.0001353
3574	4.62e-05
3586	3.63e-05
3598	8.91e-05
3610	0.0001155
3622	0.0001386
3634	0.0001056
3646	5.94e-05
3658	8.25e-05
3670	0.0001056
3682	0.0001716
3694	4.95e-05
3706	0.0001122
3718	0.0001287
3730	6.6e-05
3742	0.0001386
3754	3.3e-05
3766	0.0001287
3778	0.0001122
3790	0.0001221
3802	0.0001287
3814	0.0002508
3826	0.0001584
3838	0.0002112
