Infrared Spectrum: 2-BUTYNE-1,4-DIOL
Formula: C4 H6 O2
CAS: 110-65-6
State: SOLID (SPLIT MULL)
Class: COBLENTZ III
Instrument: DOW KBr FOREPRISM-GRATING
Instrument parameters: BLAZED AT 3.5, 12.0, 20.0 AND CHANGED AT 5.0, 7.5, 14.9 MICRON
Sampling: TRANSMISSION
Resolution: 2
Origin: DOW CHEMICAL COMPANY
1/CM	TRANSMITTANCE
3814	0.7058
3805	0.7087
3796	0.7118
3787	0.715
3778	0.7185
3769	0.7219
3760	0.7246
3751	0.7269
3742	0.7296
3733	0.7319
3724	0.7344
3715	0.7367
3706	0.739
3697	0.7412
3688	0.7438
3679	0.7464
3670	0.749
3661	0.7515
3652	0.7541
3643	0.7565
3634	0.7591
3625	0.7615
3616	0.764
3607	0.7658
3598	0.7675
3589	0.769
3580	0.77
3571	0.7708
3562	0.7711
3553	0.7691
3544	0.7668
3535	0.7639
3526	0.76
3517	0.7543
3508	0.7462
3499	0.7331
3490	0.7196
3481	0.7015
3472	0.6807
3463	0.6603
3454	0.6396
3445	0.6222
3436	0.599
3427	0.5797
3418	0.5462
3409	0.5169
3400	0.4904
3391	0.4602
3382	0.4306
3373	0.4016
3364	0.373
3355	0.3368
3346	0.3001
3337	0.2612
3328	0.2212
3319	0.1854
3310	0.1592
3301	0.1346
3292	0.1139
3283	0.1003
3274	0.0889
3265	0.0796
3256	0.0723
3247	0.0655
3238	0.0598
3229	0.0557
3220	0.0518
3211	0.048
3202	0.0443
3193	0.0407
3184	0.0377
3175	0.0347
3166	0.0333
3157	0.0317
3148	0.0303
3139	0.0302
3130	0.0308
3121	0.032
3112	0.0344
3103	0.0395
3094	0.0462
3085	0.0556
3076	0.0687
3067	0.083
3058	0.0982
3049	0.1131
3040	0.1283
3031	0.1438
3022	0.1576
3013	0.1704
3004	0.1828
2995	0.1948
2986	0.2059
2977	0.2212
2968	0.2396
2959	0.2546
2950	0.2542
2941	0.2487
2932	0.159
2923	0.1814
2914	0.2183
2905	0.2259
2896	0.2303
2887	0.2334
2878	0.2381
2869	0.2168
2860	0.215
2851	0.2154
2842	0.2209
2833	0.2261
2824	0.2284
2815	0.2315
2806	0.2371
2797	0.2577
2788	0.2773
2779	0.2994
2770	0.324
2761	0.3475
2752	0.3707
2743	0.3943
2734	0.4155
2725	0.4197
2716	0.417
2707	0.4093
2698	0.4145
2689	0.4195
2680	0.4245
2671	0.4231
2662	0.4144
2653	0.4078
2644	0.4047
2635	0.4125
2626	0.451
2617	0.4762
2608	0.4965
2599	0.5135
2590	0.5291
2581	0.5438
2572	0.5572
2563	0.5683
2554	0.5787
2545	0.5886
2536	0.5971
2527	0.6037
2518	0.6082
2509	0.6108
2500	0.6134
2491	0.6158
2482	0.615
2473	0.6
2464	0.5852
2455	0.5823
2446	0.5896
2437	0.5946
2428	0.5951
2419	0.584
2410	0.5726
2401	0.5829
2392	0.5947
2383	0.6035
2374	0.611
2365	0.626
2356	0.6366
2347	0.6376
2338	0.6387
2329	0.6411
2320	0.6482
2311	0.6526
2302	0.6569
2293	0.6603
2284	0.6637
2275	0.6669
2266	0.6706
2257	0.6738
2248	0.6761
2239	0.6768
2230	0.6758
2221	0.6725
2212	0.6688
2203	0.6783
2194	0.6868
2185	0.6928
2176	0.6965
2167	0.6998
2158	0.7026
2149	0.7055
2140	0.7071
2131	0.7083
2122	0.7092
2113	0.7108
2104	0.7128
2095	0.7158
2086	0.7194
2077	0.7218
2068	0.7239
2059	0.7251
2050	0.7265
2041	0.7265
2032	0.7265
2023	0.7258
2014	0.7256
2005	0.7228
1996	0.6822
1987	0.7185
1978	0.7315
1969	0.7425
1960	0.7581
1951	0.7545
1942	0.7468
1933	0.7568
1924	0.7607
1915	0.7615
1906	0.7635
1897	0.7654
1888	0.7674
1879	0.7684
1870	0.769
1861	0.7691
1852	0.7691
1843	0.7683
1834	0.7671
1825	0.7654
1816	0.7636
1807	0.7619
1798	0.7605
1789	0.7588
1780	0.7581
1771	0.7572
1762	0.7558
1753	0.7536
1744	0.7508
1735	0.7475
1726	0.7432
1717	0.7371
1708	0.7407
1699	0.7421
1690	0.7408
1681	0.7391
1672	0.7364
1663	0.7337
1654	0.7315
1645	0.7295
1636	0.7271
1627	0.7242
1618	0.721
1609	0.7172
1600	0.713
1591	0.7087
1582	0.7039
1573	0.6975
1564	0.6888
1555	0.678
1546	0.6691
1537	0.6601
1528	0.6449
1519	0.6284
1510	0.6051
1501	0.5681
1492	0.5101
1483	0.4778
1474	0.454
1465	0.4404
1456	0.4495
1447	0.2576
1438	0.4605
1429	0.5047
1420	0.4859
1411	0.4364
1402	0.3934
1393	0.4242
1384	0.4644
1375	0.4479
1366	0.2271
1357	0.2071
1348	0.3318
1339	0.4271
1330	0.5287
1321	0.6143
1312	0.6373
1303	0.6478
1294	0.6632
1285	0.6843
1276	0.7035
1267	0.7188
1258	0.7395
1249	0.7303
1240	0.493
1231	0.3372
1222	0.6614
1213	0.7644
1204	0.7965
1195	0.808
1186	0.8137
1177	0.8047
1168	0.7968
1159	0.7944
1150	0.7776
1141	0.724
1132	0.2353
1123	0.3622
1114	0.6489
1105	0.7285
1096	0.7478
1087	0.748
1078	0.7299
1069	0.7106
1060	0.6734
1051	0.6039
1042	0.4375
1033	0.2498
1024	0.0836
1015	0.0544
1006	0.0739
997	0.1282
988	0.2711
979	0.2245
970	0.2653
961	0.5669
952	0.6326
943	0.6726
934	0.7021
925	0.7265
916	0.746
907	0.7618
898	0.7724
889	0.7753
880	0.7881
871	0.7896
862	0.7875
853	0.7797
844	0.7584
835	0.731
826	0.7008
817	0.6739
808	0.6524
799	0.6325
790	0.6074
781	0.4865
772	0.5052
763	0.6821
754	0.7147
745	0.7136
736	0.6822
727	0.6346
718	0.5665
709	0.5277
700	0.436
691	0.3724
682	0.3566
673	0.3723
664	0.425
655	0.4675
646	0.519
637	0.5748
628	0.631
619	0.6768
610	0.6997
601	0.715
592	0.6798
583	0.4709
574	0.446
565	0.7225
556	0.7787
547	0.8051
538	0.8192
529	0.8297
520	0.8375
511	0.8417
502	0.8435
493	0.8446
484	0.8449
475	0.844
466	0.8411
457	0.8364
448	0.8294
439	0.8288
430	0.8273
421	0.8247
