Infrared Spectrum: PROPANAL
Formula: C3 H6 O
CAS: 123-38-6
State: GAS (100 mmHg, N2 ADDED, TOTAL PRESSURE 600 mmHg)
Class: COBLENTZ
Instrument: DOW KBr FOREPRISM-GRATING
Instrument parameters: GRATING CHANGED AT 5.0, 7.5, 15.0 MICRON
Sampling: TRANSMISSION
Path length: 5 CM
Resolution: 2
Origin: DOW CHEMICAL COMPANY
1/CM	TRANSMITTANCE
455.163	0.924
464.674	0.921
474.185	0.911
483.696	0.896
493.207	0.871
502.718	0.801
512.229	0.782
521.74	0.772
531.25	0.7929
540.761	0.854
550.272	0.89
559.783	0.921
569.294	0.932
578.805	0.938
588.316	0.945
597.827	0.947
607.338	0.951
616.849	0.947
626.36	0.932
635.871	0.896
645.382	0.818
654.893	0.814
664.403	0.778
673.914	0.81
683.425	0.8919
692.936	0.919
702.447	0.943
711.958	0.955
721.469	0.955
730.98	0.953
740.491	0.945
750.002	0.934
759.513	0.911
769.024	0.89
778.535	0.873
788.046	0.877
797.557	0.582
807.067	0.898
816.578	0.89
826.089	0.746
835.6	0.561
845.111	0.5352
854.622	0.4892
864.133	0.584
873.644	0.746
883.155	0.736
892.666	0.713
902.177	0.713
911.688	0.729
921.199	0.797
930.71	0.869
940.22	0.913
949.731	0.934
959.242	0.943
968.753	0.94
978.264	0.934
987.775	0.917
997.286	0.892
1006.8	0.883
1016.31	0.881
1025.82	0.902
1035.33	0.919
1044.84	0.926
1054.35	0.909
1063.86	0.888
1073.37	0.795
1082.88	0.66
1092.4	0.611
1101.91	0.6699
1111.42	0.59
1120.93	0.761
1130.44	0.757
1139.95	0.776
1149.46	0.778
1158.97	0.848
1168.48	0.892
1177.99	0.917
1187.5	0.924
1197.02	0.902
1206.53	0.848
1216.04	0.845
1225.55	0.843
1235.06	0.822
1244.57	0.869
1254.08	0.892
1263.59	0.907
1273.1	0.932
1282.61	0.94
1292.12	0.934
1301.64	0.924
1311.15	0.9
1320.66	0.818
1330.17	0.755
1339.68	0.691
1349.19	0.6431
1358.7	0.59
1368.21	0.521
1377.72	0.462
1387.23	0.464
1396.75	0.548
1406.26	0.449
1415.77	0.459
1425.28	0.491
1434.79	0.478
1444.3	0.54
1453.81	0.525
1463.32	0.5161
1472.83	0.592
1482.34	0.632
1491.85	0.725
1501.37	0.852
1510.88	0.845
1520.39	0.89
1529.9	0.8941
1539.41	0.921
1548.92	0.919
1558.43	0.791
1567.94	0.928
1577.45	0.873
1586.96	0.93
1596.47	0.932
1605.99	0.924
1615.5	0.9239
1625.01	0.907
1634.52	0.911
1644.03	0.896
1653.54	0.7022
1663.05	0.8181
1672.56	0.753
1682.07	0.729
1691.58	0.6789
1701.09	0.537
1710.61	0.5159
1720.12	0.2699
1729.63	0.0631
1739.14	0.01
1748.65	0.004
1758.16	0.01
1767.67	0.014
1777.18	0.1183
1786.69	0.4571
1796.2	0.6489
1805.72	0.774
1815.23	0.841
1824.74	0.845
1834.25	0.856
1843.76	0.854
1853.27	0.871
1862.78	0.89
1872.29	0.894
1881.8	0.915
1891.31	0.917
1900.82	0.936
1910.34	0.938
1919.85	0.934
1929.36	0.945
1938.87	0.945
1948.38	0.949
1957.89	0.955
1967.4	0.957
1976.91	0.957
1986.42	0.957
1995.93	0.953
2005.44	0.955
2014.96	0.955
2024.47	0.957
2033.98	0.959
2043.49	0.9619
2053	0.9606
2062.51	0.959
2072.02	0.957
2081.53	0.957
2091.04	0.9579
2100.55	0.959
2110.07	0.959
2119.58	0.959
2129.09	0.9581
2138.6	0.9551
2148.11	0.953
2157.62	0.953
2167.13	0.955
2176.64	0.955
2186.15	0.955
2195.66	0.957
2205.17	0.964
2214.69	0.962
2224.2	0.962
2233.71	0.962
2243.22	0.962
2252.73	0.964
2262.24	0.964
2271.75	0.964
2281.26	0.966
2290.77	0.9643
2300.28	0.9576
2309.79	0.9479
2319.31	0.9387
2328.82	0.9323
2338.33	0.93
2347.84	0.9287
2357.35	0.915
2366.86	0.9299
2376.37	0.9456
2385.88	0.9586
2395.39	0.962
2404.9	0.962
2414.41	0.9611
2423.93	0.9656
2433.44	0.9686
2442.95	0.97
2452.46	0.972
2461.97	0.972
2471.48	0.97
2480.99	0.97
2490.5	0.972
2500.01	0.972
2509.52	0.972
2519.04	0.97
2528.55	0.97
2538.06	0.968
2547.57	0.964
2557.08	0.964
2566.59	0.9614
2576.1	0.955
2585.61	0.9526
2595.12	0.947
2604.63	0.938
2614.14	0.9306
2623.66	0.9179
2633.17	0.8939
2642.68	0.8743
2652.19	0.8255
2661.7	0.7748
2671.21	0.6599
2680.72	0.5211
2690.23	0.3549
2699.74	0.1747
2709.25	0.1221
2718.76	0.1053
2728.28	0.1359
2737.79	0.238
2747.3	0.3857
2756.81	0.497
2766.32	0.4918
2775.83	0.4773
2785.34	0.3507
2794.85	0.2258
2804.36	0.1676
2813.87	0.1762
2823.38	0.2129
2832.9	0.2586
2842.41	0.4128
2851.92	0.58
2861.43	0.6473
2870.94	0.6367
2880.45	0.5506
2889.96	0.3939
2899.47	0.3041
2908.98	0.2856
2918.49	0.2654
2928.01	0.3311
2937.52	0.3241
2947.03	0.3313
2956.54	0.345
2966.05	0.2715
2975.56	0.2145
2985.07	0.17
2994.58	0.144
3004.09	0.2145
3013.6	0.3843
3023.11	0.6732
3032.63	0.7885
3042.14	0.8478
3051.65	0.8758
3061.16	0.894
3070.67	0.8989
3080.18	0.902
3089.69	0.9068
3099.2	0.913
3108.71	0.911
3118.22	0.911
3127.73	0.915
3137.25	0.919
3146.76	0.9329
3156.27	0.9446
3165.78	0.9498
3175.29	0.953
3184.8	0.9522
3194.31	0.951
3203.82	0.959
3213.33	0.9676
3222.84	0.9708
3232.35	0.972
3241.87	0.972
3251.38	0.9758
3260.89	0.978
3270.4	0.9806
3279.91	0.981
3289.42	0.9813
3298.93	0.978
3308.44	0.978
3317.95	0.981
3327.46	0.985
3336.98	0.9843
3346.49	0.9814
3356	0.981
3365.51	0.978
3375.02	0.981
3384.53	0.978
3394.04	0.974
3403.55	0.9704
3413.06	0.9634
3422.57	0.9514
3432.08	0.9422
3441.6	0.9214
3451.11	0.9003
3460.62	0.8811
3470.13	0.8705
3479.64	0.8705
3489.15	0.8955
3498.66	0.9238
3508.17	0.9555
3517.68	0.968
3527.19	0.974
3536.7	0.9705
3546.22	0.9716
3555.73	0.955
3565.24	0.9656
3574.75	0.9536
3584.26	0.9601
3593.77	0.966
3603.28	0.957
3612.79	0.964
3622.3	0.9582
3631.81	0.9563
3641.32	0.955
3650.84	0.9657
3660.35	0.9369
3669.86	0.9603
3679.37	0.9646
3688.88	0.968
3698.39	0.9519
3707.9	0.966
3717.41	0.9581
3726.92	0.9446
3736.43	0.9171
3745.95	0.968
