Infrared Spectrum: 2-Propenenitrile, 2-methyl-
Formula: C 4 H 5 N
CAS: 126-98-7
State: gas
Origin: Sadtler Research Labs Under US-EPA Contract
1/CM	ABSORBANCE
450	0
462	0.00254972
474	0.00393385
486	0.00837764
498	0.00531798
510	0.0525241
522	0.0775113
534	0.140234
546	0.0633058
558	0.0416696
570	0.0170467
582	0.0219275
594	0.0179209
606	0.00874188
618	0.00641071
630	0.00393385
642	0.00597362
654	0.00641071
666	0.00298681
678	0.00509943
690	0.00560937
702	0.00779484
714	0.0121658
726	0.0295767
738	0.0345304
750	0.0333648
762	0.0169738
774	0.0069935
786	0.00983462
798	0.011073
810	0.00874188
822	0.00837764
834	0.00641071
846	0.00692066
858	0.00735775
870	0.0105631
882	0.0270998
894	0.101552
906	0.216143
918	0.301231
930	0.426312
942	0.260289
954	0.150142
966	0.0480803
978	0.0228017
990	0.0236031
1002	0.0391199
1014	0.0471333
1026	0.0560937
1038	0.0317622
1050	0.0126029
1062	0.00815909
1074	0.00735775
1086	0.00772199
1098	0.00750345
1110	0.00750345
1122	0.00794054
1134	0.00947037
1146	0.0116558
1158	0.0111459
1170	0.0115101
1182	0.0138413
1194	0.014934
1206	0.0145698
1218	0.0135499
1230	0.01253
1242	0.0283383
1254	0.0817366
1266	0.101697
1278	0.101989
1290	0.0556566
1302	0.0214176
1314	0.0195235
1326	0.018795
1338	0.020252
1350	0.020762
1362	0.0334377
1374	0.0642528
1386	0.0730675
1398	0.105704
1410	0.079114
1422	0.0870546
1434	0.0977634
1446	0.162745
1458	0.1634
1470	0.161579
1482	0.107088
1494	0.0432723
1506	0.0197421
1518	0.0156625
1530	0.0171195
1542	0.0185036
1554	0.0240402
1566	0.0264442
1578	0.0293581
1590	0.0398484
1602	0.0601733
1614	0.0990746
1626	0.112552
1638	0.125883
1650	0.0747431
1662	0.0364245
1674	0.0160268
1686	0.00910613
1698	0.00735775
1710	0.00590077
1722	0.00517228
1734	0.00531798
1746	0.00509943
1758	0.00415239
1770	0.00480803
1782	0.00495373
1794	0.00488088
1806	0.00670211
1818	0.00990746
1830	0.0205434
1842	0.0453121
1854	0.0485903
1866	0.0541997
1878	0.0241859
1890	0.00852333
1902	0.00466234
1914	0.00466234
1926	0.00349675
1938	0.0037153
1950	0.003861
1962	0.00393385
1974	0.0040067
1986	0.00444379
1998	0.00502658
2010	0.00590077
2022	0.00706635
2034	0.0069935
2046	0.00517228
2058	0.00735775
2070	0.00502658
2082	0.00196692
2094	0.00291396
2106	0.00291396
2118	0.0034239
2130	0.00444379
2142	0.00458949
2154	0.0040067
2166	0.00393385
2178	0.00451664
2190	0.00502658
2202	0.00830479
2214	0.014497
2226	0.0224375
2238	0.0205434
2250	0.0160996
2262	0.00517228
2274	0.00320536
2286	0.00335105
2298	0.0037153
2310	0.00517228
2322	0.00604647
2334	0.00735775
2346	0.011073
2358	0.00772199
2370	0.00801339
2382	0.00794054
2394	0.00721205
2406	0.00823194
2418	0.00866903
2430	0.00845048
2442	0.0075763
2454	0.00604647
2466	0.00604647
2478	0.00677496
2490	0.00626501
2502	0.00721205
2514	0.00619217
2526	0.00626501
2538	0.00568222
2550	0.00590077
2562	0.00568222
2574	0.00684781
2586	0.00721205
2598	0.00735775
2610	0.0072849
2622	0.00684781
2634	0.00524513
2646	0.00429809
2658	0.00662926
2670	0.0037153
2682	0.00335105
2694	0.0075763
2706	0.00750345
2718	0.00684781
2730	0.0075763
2742	0.00932467
2754	0.00976177
2766	0.011583
2778	0.0102717
2790	0.0104174
2802	0.0121658
2814	0.0144241
2826	0.0166824
2838	0.0177752
2850	0.0233117
2862	0.032345
2874	0.0397756
2886	0.0466962
2898	0.0490274
2910	0.0524513
2922	0.0651999
2934	0.0983462
2946	0.098419
2958	0.114591
2970	0.101552
2982	0.15036
2994	0.152109
3006	0.145407
3018	0.0807895
3030	0.0475704
3042	0.031835
3054	0.0284111
3066	0.0232388
3078	0.0230931
3090	0.0285568
3102	0.0523784
3114	0.0545639
3126	0.0584249
3138	0.0291396
3150	0.0140599
3162	0.00990746
3174	0.00874188
3186	0.00808624
3198	0.0071392
3210	0.00604647
3222	0.00553652
3234	0.00407954
3246	0.00378815
3258	0.00488088
3270	0.00313251
3282	0.00269541
3294	0.00276826
3306	0.00313251
3318	0.0034239
3330	0.00451664
3342	0.00480803
3354	0.00539083
3366	0.00517228
3378	0.00524513
3390	0.00560937
3402	0.00480803
3414	0.00502658
3426	0.00422524
3438	0.00211262
3450	0.0035696
3462	0.00539083
3474	0.00509943
3486	0.00662926
3498	0.00692066
3510	0.00662926
3522	0.00706635
3534	0.00407954
3546	0.00327821
3558	0.00349675
3570	0.00429809
3582	0.00211262
3594	0.00364245
3606	0.00218547
3618	0.00458949
3630	0.00466234
3642	0.00444379
3654	0.00444379
3666	0.00458949
3678	0.00444379
3690	0.00575507
3702	0.00852333
3714	0.0071392
3726	0.00794054
3738	0.00845048
3750	0.0075763
3762	0.00706635
3774	0.00764915
3786	0.00692066
3798	0.00597362
3810	0.00721205
3822	0.00808624
3834	0.00888758
3846	0.00837764
3858	0.00859618
3870	0.00881473
3882	0.00917897
3894	0.00925182
3906	0.00917897
3918	0.00604647
3930	0.00648356
3942	0.00779484
3954	0.00932467
3966	0.00888758
