Infrared Spectrum: Methacrylonitrile
Formula: C4 H5 N
CAS: 126-98-7
State: GAS (30 mmHg, N2 ADDED, TOTAL PRESSURE 600 mmHg)
Class: COBLENTZ
Instrument: DOW KBr FOREPRISM-GRATING
Instrument parameters: GRATING CHANGED AT 5.0, 7.5, 15.0 MICRON
Sampling: TRANSMISSION
Path length: 5 CM
Resolution: 2
Origin: DOW CHEMICAL COMPANY
1/CM	TRANSMITTANCE
458	0.8913
467	0.8887
476	0.8822
485	0.8727
494	0.8611
503	0.8427
512	0.8174
521	0.7929
530	0.7627
539	0.7491
548	0.7933
557	0.8329
566	0.8592
575	0.8628
584	0.8667
593	0.874
602	0.8865
611	0.8951
620	0.8991
629	0.8999
638	0.8993
647	0.8965
656	0.8933
665	0.8906
674	0.8885
683	0.889
692	0.8919
701	0.8937
710	0.8892
719	0.8797
728	0.86
737	0.8518
746	0.8532
755	0.864
764	0.8828
773	0.8876
782	0.8869
791	0.8928
800	0.8832
809	0.8805
818	0.885
827	0.887
836	0.8881
845	0.8884
854	0.8876
863	0.8862
872	0.8842
881	0.8795
890	0.8504
899	0.7343
908	0.6268
917	0.5759
926	0.0835
935	0.5687
944	0.629
953	0.7534
962	0.8527
971	0.8664
980	0.8742
989	0.8714
998	0.8591
1007	0.8198
1016	0.8351
1025	0.817
1034	0.8608
1043	0.8773
1052	0.883
1061	0.8873
1070	0.8846
1079	0.8837
1088	0.8847
1097	0.8862
1106	0.8872
1115	0.8873
1124	0.8896
1133	0.8922
1142	0.8904
1151	0.8913
1160	0.8939
1169	0.8969
1178	0.8996
1187	0.9011
1196	0.9027
1205	0.9043
1214	0.905
1223	0.9066
1232	0.9054
1241	0.8857
1250	0.8376
1259	0.7771
1268	0.7886
1277	0.7684
1286	0.8387
1295	0.8804
1304	0.8843
1313	0.884
1322	0.8839
1331	0.8847
1340	0.8831
1349	0.8711
1358	0.8532
1367	0.8334
1376	0.8112
1385	0.8477
1394	0.768
1403	0.8077
1412	0.8117
1421	0.8001
1430	0.785
1439	0.7522
1448	0.6316
1457	0.6657
1466	0.657
1475	0.7313
1484	0.8249
1493	0.8704
1502	0.8808
1511	0.8827
1520	0.8825
1529	0.8841
1538	0.8819
1547	0.879
1556	0.8806
1565	0.8709
1574	0.8665
1583	0.8625
1592	0.8532
1601	0.8375
1610	0.807
1619	0.7526
1628	0.765
1637	0.7131
1646	0.7892
1655	0.8394
1664	0.8601
1673	0.8809
1682	0.8833
1691	0.883
1700	0.8815
1709	0.8799
1718	0.8783
1727	0.8765
1736	0.8796
1745	0.8809
1754	0.8846
1763	0.8859
1772	0.8872
1781	0.8885
1790	0.8887
1799	0.8885
1808	0.8866
1817	0.8836
1826	0.8722
1835	0.8466
1844	0.8198
1853	0.8376
1862	0.8147
1871	0.8559
1880	0.8815
1889	0.8835
1898	0.8847
1907	0.8857
1916	0.8863
1925	0.8864
1934	0.8876
1943	0.8887
1952	0.8947
1961	0.8889
1970	0.8868
1979	0.8862
1988	0.887
1997	0.8879
2006	0.8891
2015	0.8899
2024	0.8906
2033	0.8911
2042	0.8917
2051	0.8922
2060	0.8928
2069	0.8932
2078	0.8937
2087	0.8939
2096	0.8938
2105	0.8937
2114	0.8936
2123	0.8931
2132	0.8927
2141	0.8921
2150	0.8916
2159	0.8911
2168	0.8907
2177	0.8902
2186	0.8897
2195	0.8882
2204	0.8851
2213	0.877
2222	0.8671
2231	0.867
2240	0.871
2249	0.8785
2258	0.8891
2267	0.8925
2276	0.8929
2285	0.8928
2294	0.8921
2303	0.8914
2312	0.8909
2321	0.8903
2330	0.8892
2339	0.8881
2348	0.887
2357	0.886
2366	0.885
2375	0.8839
2384	0.883
2393	0.8826
2402	0.8822
2411	0.8818
2420	0.8817
2429	0.884
2438	0.8886
2447	0.8886
2456	0.8886
2465	0.8885
2474	0.8884
2483	0.8883
2492	0.8886
2501	0.8888
2510	0.8891
2519	0.889
2528	0.8889
2537	0.8888
2546	0.8889
2555	0.889
2564	0.8891
2573	0.8892
2582	0.8895
2591	0.8898
2600	0.89
2609	0.8897
2618	0.8895
2627	0.8892
2636	0.8887
2645	0.8882
2654	0.8879
2663	0.8875
2672	0.8872
2681	0.8869
2690	0.8864
2699	0.8859
2708	0.8854
2717	0.8847
2726	0.8837
2735	0.8827
2744	0.8818
2753	0.8808
2762	0.8811
2771	0.882
2780	0.8821
2789	0.8799
2798	0.8767
2807	0.8714
2816	0.8646
2825	0.8567
2834	0.845
2843	0.8387
2852	0.8384
2861	0.8364
2870	0.829
2879	0.8168
2888	0.8039
2897	0.7922
2906	0.7791
2915	0.7616
2924	0.7459
2933	0.7589
2942	0.729
2951	0.7495
2960	0.7668
2969	0.6693
2978	0.6534
2987	0.6556
2996	0.6987
3005	0.729
3014	0.8321
3023	0.8388
3032	0.8546
3041	0.8573
3050	0.862
3059	0.8665
3068	0.8676
3077	0.8663
3086	0.86
3095	0.8304
3104	0.8113
3113	0.8104
3122	0.8241
3131	0.8614
3140	0.8687
3149	0.8707
3158	0.8724
3167	0.8738
3176	0.8749
3185	0.8749
3194	0.8749
3203	0.8749
3212	0.8748
3221	0.8747
3230	0.8746
3239	0.8743
3248	0.874
3257	0.8736
3266	0.8735
3275	0.8737
3284	0.8738
3293	0.874
3302	0.8741
3311	0.8742
3320	0.8746
3329	0.8749
3338	0.8753
3347	0.8756
3356	0.876
3365	0.8763
3374	0.8763
3383	0.8763
3392	0.8763
3401	0.8763
3410	0.8761
3419	0.8754
3428	0.8748
3437	0.8742
3446	0.8736
3455	0.8729
3464	0.8723
3473	0.8716
3482	0.871
3491	0.8705
3500	0.8716
3509	0.8737
3518	0.8767
3527	0.8803
3536	0.8818
3545	0.8814
3554	0.8812
3563	0.8799
3572	0.8786
3581	0.8773
3590	0.8763
3599	0.8752
3608	0.8744
3617	0.874
3626	0.8736
3635	0.8731
3644	0.8728
3653	0.8724
3662	0.872
3671	0.8729
3680	0.8738
3689	0.8751
3698	0.8774
3707	0.8794
3716	0.88
3725	0.8796
3734	0.8781
3743	0.8766
3752	0.8755
3761	0.8744
3770	0.8737
3779	0.873
