Infrared Spectrum: PROPENENITRILE, 2-METHYL
Formula: C4 H5 N
CAS: 126-98-7
State: LIQUID (NEAT)
Melting point: 86 C
Class: COBLENTZ III
Instrument: PERKIN-ELMER 521 (GRATING)
Sampling: TRANSMISSION
Path length: 0.003 CM
Resolution: 4
Origin: STANDARD OIL OF OHIO
1/CM	TRANSMITTANCE
609.85	0.608
618.3	0.628
626.75	0.657
635.2	0.696
643.65	0.729
652.1	0.746
660.55	0.764
669	0.788
677.45	0.812
685.9	0.839
694.35	0.851
702.8	0.858
711.25	0.86
719.7	0.855
728.15	0.827
736.6	0.773
745.05	0.534
753.5	0.732
761.95	0.887
770.4	0.908
778.851	0.916
787.301	0.918
795.751	0.914
804.201	0.908
812.651	0.894
821.101	0.904
829.551	0.935
838.001	0.935
846.451	0.933
854.901	0.928
863.351	0.914
871.801	0.901
880.251	0.885
888.701	0.853
897.151	0.8
905.601	0.706
914.051	0.497
922.501	0.201
930.951	0.01
939.401	0.017
947.851	0.066
956.301	0.258
964.751	0.499
973.201	0.671
981.651	0.768
990.101	0.802
998.551	0.78
1007	0.689
1015.45	0.407
1023.9	0.545
1032.35	0.754
1040.8	0.804
1049.25	0.812
1057.7	0.899
1066.15	0.921
1074.6	0.936
1083.05	0.947
1091.5	0.95
1099.95	0.952
1108.4	0.952
1116.85	0.954
1125.3	0.954
1133.75	0.954
1142.2	0.955
1150.65	0.95
1159.1	0.933
1167.55	0.923
1176	0.938
1184.45	0.945
1192.9	0.942
1201.35	0.931
1209.8	0.916
1218.25	0.901
1226.7	0.899
1235.15	0.887
1243.6	0.87
1252.05	0.824
1260.5	0.511
1268.95	0.344
1277.4	0.751
1285.85	0.868
1294.3	0.896
1302.75	0.902
1311.2	0.901
1319.65	0.89
1328.1	0.875
1336.55	0.875
1345	0.875
1353.45	0.867
1361.9	0.838
1370.35	0.749
1378.8	0.235
1387.25	0.456
1395.7	0.591
1404.15	0.495
1412.6	0.516
1421.05	0.431
1429.5	0.347
1437.95	0.293
1446.4	0.066
1454.85	0.165
1463.3	0.393
1471.75	0.546
1480.2	0.596
1488.65	0.734
1497.1	0.802
1505.55	0.86
1514	0.872
1522.45	0.879
1530.9	0.877
1539.35	0.87
1547.8	0.868
1556.25	0.87
1564.7	0.868
1573.15	0.862
1581.6	0.851
1590.05	0.836
1598.5	0.802
1606.95	0.754
1615.4	0.652
1623.85	0.252
1632.3	0.495
1640.75	0.77
1649.2	0.798
1657.65	0.824
1666.1	0.86
1674.55	0.887
1683	0.906
1691.45	0.914
1699.9	0.94
1708.35	0.947
1716.8	0.952
1725.25	0.957
1733.7	0.959
1742.15	0.957
1750.6	0.955
1759.05	0.954
1767.5	0.955
1775.95	0.954
1784.4	0.954
1792.85	0.954
1801.3	0.954
1809.75	0.948
1818.2	0.94
1826.65	0.93
1835.1	0.918
1843.55	0.899
1852	0.86
1860.45	0.817
1868.9	0.77
1877.35	0.744
1885.8	0.751
1894.25	0.795
1902.7	0.839
1911.15	0.867
1919.6	0.899
1928.05	0.926
1936.5	0.938
1944.95	0.95
1953.4	0.952
1961.85	0.952
1970.3	0.952
1978.75	0.95
1987.2	0.952
1995.65	0.95
2004.1	0.96
2012.55	0.962
2021	0.971
2029.45	0.972
2037.9	0.976
2046.35	0.977
2054.8	0.977
2063.25	0.974
2071.7	0.974
2080.15	0.971
2088.6	0.971
2097.05	0.971
2105.5	0.971
2113.95	0.969
2122.4	0.962
2130.85	0.96
2139.3	0.96
2147.75	0.959
2156.2	0.955
2164.65	0.948
2173.1	0.935
2181.55	0.936
2190	0.918
2198.45	0.885
2206.9	0.7
2215.35	0.449
2223.8	0.306
2232.25	0.131
2240.7	0.638
2249.15	0.885
2257.6	0.933
2266.05	0.952
2274.5	0.96
2282.96	0.964
2291.41	0.965
2299.86	0.965
2308.31	0.965
2316.76	0.959
2325.21	0.954
2333.66	0.952
2342.11	0.954
2350.56	0.954
2359.01	0.954
2367.46	0.95
2375.91	0.948
2384.36	0.943
2392.81	0.935
2401.26	0.93
2409.71	0.926
2418.16	0.919
2426.61	0.923
2435.06	0.948
2443.51	0.952
2451.96	0.954
2460.41	0.954
2468.86	0.954
2477.31	0.957
2485.76	0.957
2494.21	0.955
2502.66	0.954
2511.11	0.95
2519.56	0.947
2528.01	0.947
2536.46	0.965
2544.91	0.969
2553.36	0.967
2561.81	0.96
2570.26	0.948
2578.71	0.948
2587.16	0.962
2595.61	0.964
2604.06	0.962
2612.51	0.962
2620.96	0.959
2629.41	0.954
2637.86	0.947
2646.31	0.933
2654.76	0.96
2663.21	0.96
2671.66	0.96
2680.11	0.96
2688.56	0.959
2697.01	0.957
2705.46	0.95
2713.91	0.943
2722.36	0.942
2730.81	0.94
2739.26	0.921
2747.71	0.919
2756.16	0.931
2764.61	0.931
2773.06	0.933
2781.51	0.926
2789.96	0.909
2798.41	0.901
2806.86	0.899
2815.31	0.897
2823.76	0.882
2832.21	0.868
2840.66	0.85
2849.11	0.824
2857.56	0.804
2866.01	0.766
2874.46	0.752
2882.91	0.722
2891.36	0.701
2899.81	0.727
2908.26	0.73
2916.71	0.688
2925.16	0.529
2933.61	0.434
2942.06	0.577
2950.51	0.604
2958.96	0.492
2967.41	0.391
2975.86	0.511
2984.31	0.511
2992.76	0.424
3001.21	0.519
3009.66	0.667
3018.11	0.724
3026.56	0.768
3035.01	0.773
3043.46	0.78
3051.91	0.81
3060.36	0.819
3068.81	0.819
3077.26	0.817
3085.71	0.809
3094.16	0.797
3102.61	0.764
3111.06	0.744
3119.51	0.788
3127.96	0.827
3136.41	0.848
3144.86	0.86
3153.31	0.867
3161.76	0.87
3170.21	0.872
3178.66	0.872
3187.11	0.88
3195.56	0.899
3204.01	0.913
3212.46	0.921
3220.91	0.925
3229.36	0.925
3237.81	0.926
3246.26	0.93
3254.71	0.94
3263.16	0.945
3271.61	0.948
3280.06	0.95
3288.51	0.95
3296.96	0.95
3305.41	0.95
3313.86	0.95
3322.31	0.95
3330.76	0.948
3339.21	0.95
3347.66	0.95
3356.11	0.95
3364.56	0.95
3373.01	0.95
3381.46	0.95
3389.91	0.948
3398.36	0.948
3406.81	0.95
3415.26	0.948
3423.71	0.95
3432.16	0.948
3440.61	0.947
3449.06	0.947
3457.51	0.938
3465.96	0.933
3474.41	0.93
3482.86	0.913
3491.31	0.887
3499.76	0.909
3508.21	0.935
3516.66	0.936
3525.11	0.936
3533.56	0.933
3542.01	0.931
3550.46	0.931
3558.91	0.933
3567.36	0.935
3575.81	0.933
3584.26	0.936
3592.71	0.94
3601.16	0.936
3609.61	0.936
3618.06	0.935
3626.51	0.933
3634.96	0.933
3643.41	0.933
3651.86	0.931
3660.31	0.931
3668.76	0.942
3677.21	0.943
3685.66	0.948
3694.11	0.954
3702.56	0.959
3711.01	0.96
3719.46	0.96
3727.91	0.96
3736.36	0.96
3744.81	0.96
3753.26	0.96
3761.71	0.96
3770.16	0.96
3778.61	0.96
3787.06	0.96
3795.51	0.96
3803.96	0.959
3812.41	0.957
3820.86	0.955
3829.31	0.954
3837.76	0.948
3846.21	0.947
3854.66	0.954
3863.11	0.954
3871.56	0.954
3880.01	0.954
3888.46	0.952
3896.91	0.95
3905.36	0.948
3913.81	0.945
3922.26	0.94
3930.71	0.936
3939.16	0.936
3947.61	0.938
