Infrared Spectrum: METHACRYLONITRILE
Formula: C4 H5 N
CAS: 126-98-7
State: SOLUTION (10% CCl4 FOR 5000-1330, 10% CS2 FOR 1330-625 CM^-^1)
Class: COBLENTZ
Instrument: Not specified, most likely a prism, grating, or hybrid spectrometer.
Sampling: TRANSMISSION
Path length: 0.0128 CM, 0.0125 CM
Resolution: 4
Origin: DOW CHEMICAL COMPANY
MICROMETERS	TRANSMITTANCE
2.027	0.895
2.06818	0.895
2.10936	0.899
2.15054	0.882
2.19172	0.873
2.2329	0.861
2.27407	0.883
2.31525	0.889
2.35643	0.892
2.39761	0.885
2.43879	0.883
2.47997	0.887
2.52115	0.894
2.56233	0.892
2.60351	0.897
2.64469	0.894
2.68587	0.887
2.72704	0.887
2.76822	0.87
2.8094	0.878
2.85058	0.872
2.89176	0.882
2.93294	0.878
2.97412	0.882
3.0153	0.88
3.05648	0.87
3.09766	0.868
3.13884	0.854
3.18001	0.824
3.22119	0.841
3.26237	0.817
3.30355	0.706
3.34473	0.621
3.38591	0.716
3.42709	0.791
3.46827	0.831
3.50945	0.86
3.55063	0.87
3.59181	0.872
3.63298	0.878
3.67416	0.887
3.71534	0.887
3.75652	0.875
3.7977	0.887
3.83888	0.88
3.88006	0.88
3.92124	0.88
3.96242	0.882
4.0036	0.883
4.04478	0.878
4.08595	0.866
4.12713	0.87
4.16831	0.866
4.20949	0.861
4.25067	0.858
4.29185	0.866
4.33303	0.863
4.37421	0.853
4.41539	0.726
4.45657	0.554
4.49775	0.764
4.53892	0.87
4.5801	0.868
4.62128	0.882
4.66246	0.878
4.70364	0.882
4.74482	0.887
4.786	0.882
4.82718	0.883
4.86836	0.887
4.90954	0.88
4.95072	0.877
4.99189	0.875
5.03307	0.878
5.07425	0.878
5.11543	0.883
5.15661	0.88
5.19779	0.866
5.23897	0.849
5.28015	0.807
5.32133	0.738
5.36251	0.759
5.40369	0.836
5.44486	0.866
5.48604	0.868
5.52722	0.875
5.5684	0.88
5.60958	0.875
5.65076	0.877
5.69194	0.877
5.73312	0.875
5.7743	0.877
5.81548	0.87
5.85666	0.866
5.89783	0.86
5.93901	0.853
5.98019	0.825
6.02137	0.788
6.06255	0.778
6.10373	0.576
6.14491	0.488
6.18609	0.697
6.22727	0.643
6.26845	0.595
6.30963	0.575
6.3508	0.535
6.39198	0.498
6.43316	0.438
6.47434	0.484
6.51552	0.554
6.5567	0.61
6.59788	0.668
6.63906	0.708
6.68024	0.721
6.72142	0.68
6.7626	0.573
6.80377	0.513
6.84495	0.319
6.88613	0.233
6.92731	0.481
6.96849	0.534
7.00967	0.598
7.05085	0.662
7.09203	0.638
7.13321	0.677
7.17439	0.645
7.21557	0.486
7.25674	0.706
7.29792	0.808
7.3391	0.831
7.38028	0.841
7.42146	0.841
7.46264	0.837
7.50382	0.834
7.545	0.846
7.58618	0.851
7.62736	0.858
7.66854	0.856
7.70971	0.853
7.75089	0.843
7.79207	0.8
7.83325	0.665
7.87443	0.46
7.91561	0.694
7.95679	0.822
7.99797	0.854
8.03915	0.866
8.08033	0.873
8.12151	0.878
8.16268	0.877
8.20386	0.87
8.24504	0.872
8.28622	0.88
8.3274	0.889
8.36858	0.894
8.40976	0.894
8.45094	0.89
8.49212	0.889
8.5333	0.885
8.57448	0.878
8.61565	0.89
8.65683	0.899
8.69801	0.906
8.73919	0.907
8.78037	0.907
8.82155	0.907
8.86273	0.906
8.90391	0.904
8.94509	0.906
8.98627	0.907
9.02744	0.907
9.06862	0.911
9.1098	0.914
9.15098	0.907
9.19216	0.904
9.23334	0.904
9.27452	0.907
9.3157	0.902
9.35688	0.895
9.39806	0.89
9.43924	0.878
9.48041	0.865
9.52159	0.836
9.56277	0.805
9.60395	0.812
9.64513	0.824
9.68631	0.819
9.72749	0.774
9.76867	0.687
9.80985	0.558
9.85103	0.534
9.89221	0.667
9.93338	0.755
9.97456	0.82
10.0157	0.841
10.0569	0.853
10.0981	0.853
10.1393	0.851
10.1805	0.849
10.2216	0.839
10.2628	0.825
10.304	0.805
10.3452	0.778
10.3864	0.738
10.4275	0.68
10.4687	0.605
10.5099	0.561
10.5511	0.494
10.5923	0.36
10.6334	0.226
10.6746	0.129
10.7158	0.056
10.757	0.025
10.7981	0.023
10.8393	0.11
10.8805	0.337
10.9217	0.549
10.9629	0.653
11.004	0.716
11.0452	0.773
11.0864	0.798
11.1276	0.815
11.1688	0.824
11.2099	0.825
11.2511	0.825
11.2923	0.815
11.3335	0.802
11.3747	0.786
11.4158	0.774
11.457	0.761
11.4982	0.749
11.5394	0.738
11.5805	0.733
11.6217	0.728
11.6629	0.725
11.7041	0.733
11.7453	0.747
11.7864	0.778
11.8276	0.81
11.8688	0.836
11.91	0.86
11.9512	0.87
11.9923	0.878
12.0335	0.882
12.0747	0.883
12.1159	0.883
12.1571	0.883
12.1982	0.875
12.2394	0.865
12.2806	0.856
12.3218	0.854
12.363	0.86
12.4041	0.866
12.4453	0.87
12.4865	0.866
12.5277	0.865
12.5688	0.865
12.61	0.863
12.6512	0.856
12.6924	0.856
12.7336	0.856
12.7747	0.858
12.8159	0.861
12.8571	0.86
12.8983	0.854
12.9395	0.851
12.9806	0.846
13.0218	0.839
13.063	0.834
13.1042	0.824
13.1454	0.815
13.1865	0.795
13.2277	0.771
13.2689	0.728
13.3101	0.67
13.3512	0.605
13.3924	0.593
13.4336	0.653
13.4748	0.699
13.516	0.732
13.5571	0.745
13.5983	0.747
13.6395	0.747
13.6807	0.744
13.7219	0.744
13.763	0.745
13.8042	0.747
13.8454	0.747
13.8866	0.749
13.9278	0.747
13.9689	0.744
14.0101	0.738
14.0513	0.735
14.0925	0.732
14.1337	0.725
14.1748	0.723
14.216	0.718
14.2572	0.709
14.2984	0.704
14.3395	0.692
14.3807	0.686
14.4219	0.682
14.4631	0.674
14.5043	0.667
14.5454	0.66
14.5866	0.653
14.6278	0.645
14.669	0.634
14.7102	0.627
14.7513	0.617
14.7925	0.609
14.8337	0.598
14.8749	0.59
14.9161	0.58
14.9572	0.571
14.9984	0.564
15.0396	0.547
15.0808	0.539
15.122	0.529
15.1631	0.517
15.2043	0.501
15.2455	0.482
15.2867	0.476
15.3278	0.467
15.369	0.46
15.4102	0.455
15.4514	0.452
15.4926	0.447
15.5337	0.443
15.5749	0.435
15.6161	0.428
15.6573	0.43
15.6985	0.43
15.7396	0.426
15.7808	0.423
15.822	0.418
15.8632	0.407
