Infrared Spectrum: 1-PROPENE, 3-METHOXY-
Formula: C4 H8 O
CAS: 627-40-7
State: SOLUTION (10% IN CCl4 FOR 3800-1300, 10% IN CS2 FOR 1300-650, 10% IN CCl4 FOR 650-250 CM^-^1) VERSUS SOLVENT
Class: COBLENTZ II
Instrument: PERKIN-ELMER 521 (GRATING)
Instrument parameters: GRATING CHANGES AT 2000, 630 CM^-^1
Sampling: TRANSMISSION
Path length: 0.011, 0.011, AND 0.011 CM (CsBr CELL)
Resolution: 4
Origin: DOW CORNING CORP.
1/CM	TRANSMITTANCE
236.354	0.746
246.179	0.746
256.005	0.744
265.83	0.747
275.655	0.747
285.481	0.748
295.306	0.765
305.131	0.778
314.957	0.766
324.782	0.771
334.607	0.798
344.433	0.834
354.258	0.841
364.083	0.842
373.909	0.842
383.734	0.849
393.559	0.837
403.385	0.833
413.21	0.821
423.035	0.826
432.861	0.826
442.686	0.82
452.511	0.822
462.337	0.86
472.162	0.873
481.987	0.889
491.813	0.9
501.638	0.904
511.463	0.899
521.289	0.897
531.114	0.889
540.939	0.857
550.765	0.759
560.59	0.814
570.415	0.888
580.241	0.875
590.066	0.883
599.891	0.844
609.717	0.808
619.542	0.829
629.367	0.832
639.193	0.836
649.018	0.852
658.843	0.895
668.669	0.93
678.494	0.935
688.319	0.942
698.145	0.954
707.97	0.957
717.795	0.947
727.621	0.926
737.446	0.877
747.271	0.948
757.097	0.969
766.922	0.975
776.747	0.971
786.573	0.953
796.398	0.942
806.223	0.934
816.049	0.934
825.874	0.943
835.699	0.943
845.525	0.938
855.35	0.906
865.175	0.864
875.001	0.821
884.826	0.735
894.651	0.519
904.477	0.456
914.302	0.104
924.127	0.042
933.953	0.201
943.778	0.487
953.603	0.461
963.429	0.361
973.254	0.42
983.079	0.255
992.905	0.214
1002.73	0.534
1012.56	0.586
1022.38	0.73
1032.21	0.743
1042.03	0.703
1051.86	0.557
1061.68	0.479
1071.51	0.209
1081.33	0.089
1091.16	0.06
1100.98	0.045
1110.81	0.067
1120.63	0.097
1130.46	0.1891
1140.28	0.272
1150.11	0.302
1159.94	0.514
1169.76	0.634
1179.59	0.566
1189.41	0.257
1199.24	0.326
1209.06	0.5771
1218.89	0.789
1228.71	0.802
1238.54	0.802
1248.36	0.771
1258.19	0.787
1268.01	0.757
1277.84	0.688
1287.66	0.785
1297.49	0.808
1307.32	0.814
1317.14	0.813
1326.97	0.8
1336.79	0.773
1346.62	0.696
1356.44	0.536
1366.27	0.57
1376.09	0.664
1385.92	0.6401
1395.74	0.742
1405.57	0.591
1415.39	0.469
1425.22	0.281
1435.04	0.571
1444.87	0.417
1454.7	0.277
1464.52	0.408
1474.35	0.446
1484.17	0.692
1494	0.778
1503.82	0.814
1513.65	0.829
1523.47	0.84
1533.3	0.846
1543.12	0.846
1552.95	0.845
1562.77	0.836
1572.6	0.829
1582.42	0.832
1592.25	0.826
1602.08	0.821
1611.9	0.809
1621.73	0.798
1631.55	0.793
1641.38	0.68
1651.2	0.6251
1661.03	0.817
1670.85	0.836
1680.68	0.841
1690.5	0.844
1700.33	0.838
1710.15	0.846
1719.98	0.838
1729.8	0.829
1739.63	0.837
1749.46	0.853
1759.28	0.861
1769.11	0.86
1778.93	0.86
1788.76	0.857
1798.58	0.857
1808.41	0.859
1818.23	0.851
1828.06	0.837
1837.88	0.809
1847.71	0.769
1857.53	0.77
1867.36	0.801
1877.18	0.833
1887.01	0.849
1896.84	0.855
1906.66	0.86
1916.49	0.857
1926.31	0.856
1936.14	0.856
1945.96	0.856
1955.79	0.855
1965.61	0.836
1975.44	0.825
1985.26	0.818
1995.09	0.825
2004.91	0.84
2014.74	0.833
2024.56	0.828
2034.39	0.83
2044.22	0.8325
2054.04	0.83
2063.87	0.8245
2073.69	0.8245
2083.52	0.8372
2093.34	0.852
2103.17	0.855
2112.99	0.8526
2122.82	0.8539
2132.64	0.859
2142.47	0.859
2152.29	0.859
2162.12	0.8564
2171.94	0.8594
2181.77	0.8606
2191.6	0.8582
2201.42	0.856
2211.25	0.8564
2221.07	0.8604
2230.9	0.8617
2240.72	0.8636
2250.55	0.8617
2260.37	0.865
2270.2	0.864
2280.02	0.8647
2289.85	0.8637
2299.67	0.861
2309.5	0.864
2319.32	0.864
2329.15	0.863
2338.98	0.863
2348.8	0.8633
2358.63	0.8624
2368.45	0.8607
2378.28	0.8597
2388.1	0.859
2397.93	0.859
2407.75	0.86
2417.58	0.861
2427.4	0.861
2437.23	0.8603
2447.05	0.864
2456.88	0.8642
2466.7	0.869
2476.53	0.8688
2486.36	0.867
2496.18	0.8672
2506.01	0.865
2515.83	0.864
2525.66	0.8598
2535.48	0.859
2545.31	0.856
2555.13	0.8546
2564.96	0.8458
2574.78	0.844
2584.61	0.838
2594.43	0.837
2604.26	0.84
2614.08	0.8412
2623.91	0.844
2633.74	0.8463
2643.56	0.851
2653.39	0.8419
2663.21	0.8379
2673.04	0.8317
2682.86	0.7998
2692.69	0.7937
2702.51	0.763
2712.34	0.7701
2722.16	0.7502
2731.99	0.7251
2741.81	0.7691
2751.64	0.7688
2761.46	0.7447
2771.29	0.6924
2781.12	0.6587
2790.94	0.5744
2800.77	0.4799
2810.59	0.2813
2820.42	0.088
2830.24	0.1273
2840.07	0.1439
2849.89	0.1391
2859.72	0.1752
2869.54	0.1929
2879.37	0.17
2889.19	0.169
2899.02	0.175
2908.84	0.195
2918.67	0.1621
2928.5	0.106
2938.32	0.1546
2948.15	0.2782
2957.97	0.4563
2967.8	0.4533
2977.62	0.3219
2987.45	0.1791
2997.27	0.2809
3007.1	0.5033
3016.92	0.5069
3026.75	0.6155
3036.57	0.7112
3046.4	0.7301
3056.22	0.7001
3066.05	0.6347
3075.88	0.5434
3085.7	0.4919
3095.53	0.6356
3105.35	0.7669
3115.18	0.8191
3125	0.832
3134.83	0.8507
3144.65	0.8547
3154.48	0.8599
3164.3	0.864
3174.13	0.867
3183.95	0.8718
3193.78	0.8728
3203.6	0.876
3213.43	0.877
3223.26	0.88
3233.08	0.88
3242.91	0.8774
3252.73	0.8798
3262.56	0.881
3272.38	0.877
3282.21	0.875
3292.03	0.875
3301.86	0.873
3311.68	0.872
3321.51	0.8712
3331.33	0.869
3341.16	0.868
3350.98	0.868
3360.81	0.8687
3370.64	0.869
3380.46	0.868
3390.29	0.868
3400.11	0.867
3409.94	0.868
3419.76	0.868
3429.59	0.867
3439.41	0.8656
3449.24	0.8633
3459.06	0.8633
3468.89	0.861
3478.71	0.86
3488.54	0.857
3498.36	0.859
3508.19	0.8623
3518.02	0.8623
3527.84	0.8669
3537.67	0.871
3547.49	0.873
3557.32	0.876
3567.14	0.8766
3576.97	0.881
3586.79	0.881
3596.62	0.8822
3606.44	0.8834
3616.27	0.8828
3626.09	0.8876
3635.92	0.8858
3645.74	0.8846
3655.57	0.8834
3665.4	0.8779
3675.22	0.8684
3685.05	0.8806
3694.87	0.8861
3704.7	0.889
3714.52	0.891
3724.35	0.889
3734.17	0.8875
3744	0.887
3753.82	0.889
3763.65	0.891
3773.47	0.891
3783.3	0.8885
3793.12	0.887
