Infrared Spectrum: Allyl methyl ether
Formula: C 4 H 8 O
CAS: 627-40-7
State: gas
Instrument: HP-GC/MS/IRD
Origin: NIST Mass Spectrometry Data Center
1/CM	ABSORBANCE
550	0.0007218
562	0.0004248
574	0.000549
586	0.000468
598	0.0004446
610	0.0004734
622	0.0005976
634	0.0005076
646	0.000423
658	0.0001332
670	5.58e-05
682	0.000108
694	0.0001008
706	7.02e-05
718	0.0001638
730	0.0004698
742	0.0004932
754	0.0005436
766	0.0002034
778	5.22e-05
790	1.44e-05
802	2.88e-05
814	0.0001368
826	0.0003924
838	0.0001872
850	0.0003564
862	0.0006408
874	0.0011124
886	0.0020718
898	0.0036108
910	0.0058644
922	0.0079416
934	0.0075384
946	0.0060858
958	0.0048204
970	0.0042516
982	0.0043128
994	0.003969
1006	0.003573
1018	0.0029322
1030	0.0023238
1042	0.0023418
1054	0.003105
1066	0.0046458
1078	0.0074214
1090	0.011322
1102	0.0152892
1114	0.018
1126	0.016506
1138	0.0125586
1150	0.0092214
1162	0.0069642
1174	0.0056034
1186	0.0057798
1198	0.005625
1210	0.0047124
1222	0.0029412
1234	0.0018288
1246	0.0015372
1258	0.0014778
1270	0.001539
1282	0.0012888
1294	0.0011106
1306	0.0008604
1318	0.0007398
1330	0.0009954
1342	0.0017478
1354	0.0024066
1366	0.0026226
1378	0.0019746
1390	0.0015732
1402	0.0019656
1414	0.002727
1426	0.0028188
1438	0.0026568
1450	0.002259
1462	0.0022032
1474	0.0017352
1486	0.0011304
1498	0.0006498
1510	0.0003762
1522	0.000297
1534	0.0002484
1546	0.0002304
1558	0.0002052
1570	0.000207
1582	0.0002376
1594	0.000234
1606	0.0002682
1618	0.0004158
1630	0.00063
1642	0.000747
1654	0.0006768
1666	0.0004518
1678	0.0001728
1690	0.0001026
1702	0.000108
1714	5.58e-05
1726	4.68e-05
1738	4.32e-05
1750	4.86e-05
1762	3.42e-05
1774	2.52e-05
1786	3.42e-05
1798	5.94e-05
1810	7.56e-05
1822	0.0001746
1834	0.0003546
1846	0.0004878
1858	0.0005148
1870	0.0004338
1882	0.0002106
1894	0.0001116
1906	5.58e-05
1918	4.14e-05
1930	5.76e-05
1942	7.38e-05
1954	9.72e-05
1966	0.0001674
1978	0.000216
1990	0.0002268
2002	0.0002574
2014	0.0002268
2026	0.0002718
2038	0.0003096
2050	0.0002988
2062	0.0003006
2074	0.0003042
2086	0.0002934
2098	0.0001998
2110	0.000144
2122	9.9e-05
2134	9.36e-05
2146	7.2e-05
2158	7.38e-05
2170	5.4e-05
2182	6.66e-05
2194	5.76e-05
2206	5.22e-05
2218	5.22e-05
2230	4.32e-05
2242	0
2254	3.06e-05
2266	1.8e-05
2278	2.16e-05
2290	3.78e-05
2302	2.34e-05
2314	4.32e-05
2326	9.36e-05
2338	3.06e-05
2350	6.66e-05
2362	5.76e-05
2374	7.92e-05
2386	5.4e-05
2398	9.18e-05
2410	5.22e-05
2422	8.28e-05
2434	7.02e-05
2446	6.84e-05
2458	3.42e-05
2470	4.5e-05
2482	1.98e-05
2494	4.5e-05
2506	3.6e-05
2518	6.3e-05
2530	0.0001044
2542	7.74e-05
2554	0.000108
2566	0.0001134
2578	0.0001638
2590	0.0002034
2602	0.0001872
2614	0.000216
2626	0.0001872
2638	0.0002052
2650	0.0002412
2662	0.0002754
2674	0.000297
2686	0.0004032
2698	0.0005148
2710	0.000612
2722	0.000648
2734	0.0007416
2746	0.000837
2758	0.0009828
2770	0.0012708
2782	0.0018684
2794	0.00297
2806	0.0050166
2818	0.0077922
2830	0.0095166
2842	0.0102384
2854	0.009576
2866	0.009153
2878	0.008982
2890	0.0089334
2902	0.0090108
2914	0.0094104
2926	0.0096642
2938	0.0091908
2950	0.0076284
2962	0.0062838
2974	0.006309
2986	0.006957
2998	0.006615
3010	0.0055908
3022	0.0037314
3034	0.0028242
3046	0.002241
3058	0.0021168
3070	0.0025056
3082	0.0030078
3094	0.0028746
3106	0.0024084
3118	0.0013806
3130	0.0007038
3142	0.0004554
3154	0.0002682
3166	0.0002016
3178	0.000162
3190	0.0001386
3202	0.0001746
3214	9.72e-05
3226	0.0001026
3238	9e-05
3250	8.46e-05
3262	9e-05
3274	5.94e-05
3286	6.66e-05
3298	0.000126
3310	8.64e-05
3322	4.86e-05
3334	0.0001404
3346	0.0001224
3358	0.0001278
3370	9.54e-05
3382	2.7e-05
3394	8.82e-05
3406	5.4e-05
3418	4.68e-05
3430	0.000144
3442	7.56e-05
3454	8.1e-05
3466	9.54e-05
3478	5.22e-05
3490	0.0001278
3502	9.54e-05
3514	4.5e-05
3526	7.2e-05
3538	7.74e-05
3550	8.82e-05
3562	0.000117
3574	9.36e-05
3586	8.64e-05
3598	0.0001152
3610	5.76e-05
3622	5.76e-05
3634	3.06e-05
3646	0.0001062
3658	0.0001098
3670	9.54e-05
3682	0.0001242
3694	0.0001242
3706	0.0001188
3718	2.88e-05
3730	0.0001404
3742	2.16e-05
3754	9.9e-05
3766	7.92e-05
3778	4.32e-05
3790	6.66e-05
3802	5.22e-05
3814	0.0001782
3826	0.0001062
3838	0.0001206
