Infrared Spectrum: 2-PROPENAMIDE
Formula: C3 H5 N O
CAS: 79-06-1
State: SOLID (SPLIT MULL, FLUOROLUBE FOR 3800-1333 AND NUJOL FOR 1333-450 CM ^-^1)
Class: COBLENTZ III
Instrument: DOW KBr FOREPRISM-GRATING
Instrument parameters: BLAZED AT 3.5, 12.0, 20.0 MICRON, CHANGED AT 5.0, 7.5, 14.9 MICRON
Sampling: TRANSMISSION
Resolution: 4
Origin: DOW CHEMICAL COMPANY
1/CM	TRANSMITTANCE
400.968	0.872
409.505	0.87
418.043	0.872
426.58	0.87
435.117	0.87
443.654	0.869
452.192	0.872
460.729	0.87
469.266	0.865
477.804	0.846
486.341	0.816
494.878	0.78
503.416	0.496
511.953	0.5751
520.49	0.858
529.027	0.904
537.565	0.917
546.102	0.917
554.639	0.912
563.177	0.896
571.714	0.878
580.251	0.862
588.789	0.837
597.326	0.797
605.863	0.716
614.4	0.599
622.938	0.559
631.475	0.549
640.012	0.525
648.55	0.5
657.087	0.491
665.624	0.507
674.161	0.536
682.699	0.571
691.236	0.568
699.773	0.559
708.311	0.557
716.848	0.564
725.385	0.621
733.923	0.7
742.46	0.762
750.997	0.813
759.534	0.849
768.072	0.869
776.609	0.882
785.146	0.902
793.684	0.906
802.221	0.881
810.758	0.752
819.296	0.641
827.833	0.812
836.37	0.7109
844.907	0.691
853.445	0.892
861.982	0.953
870.519	0.965
879.057	0.969
887.594	0.97
896.131	0.976
904.668	0.976
913.206	0.973
921.743	0.972
930.28	0.965
938.818	0.96
947.355	0.938
955.892	0.79
964.43	0.6031
972.967	0.87
981.504	0.637
990.041	0.527
998.579	0.888
1007.12	0.94
1015.65	0.941
1024.19	0.94
1032.73	0.933
1041.27	0.893
1049.8	0.675
1058.34	0.889
1066.88	0.913
1075.41	0.905
1083.95	0.898
1092.49	0.89
1101.03	0.873
1109.56	0.838
1118.1	0.785
1126.64	0.663
1135.18	0.33
1143.71	0.5041
1152.25	0.816
1160.79	0.882
1169.32	0.894
1177.86	0.9
1186.4	0.912
1194.94	0.905
1203.47	0.898
1212.01	0.89
1220.55	0.881
1229.09	0.864
1237.62	0.836
1246.16	0.805
1254.7	0.777
1263.23	0.729
1271.77	0.633
1280.31	0.3999
1288.85	0.5131
1297.38	0.691
1305.92	0.645
1314.46	0.593
1323	0.535
1331.53	0.5
1340.07	0.428
1348.61	0.282
1357.15	0.268
1365.68	0.564
1374.22	0.637
1382.76	0.633
1391.29	0.625
1399.83	0.605
1408.37	0.551
1416.91	0.403
1425.44	0.086
1433.98	0.039
1442.52	0.368
1451.06	0.533
1459.59	0.58
1468.13	0.591
1476.67	0.601
1485.2	0.661
1493.74	0.712
1502.28	0.739
1510.82	0.743
1519.35	0.74
1527.89	0.733
1536.43	0.716
1544.97	0.696
1553.5	0.663
1562.04	0.608
1570.58	0.559
1579.11	0.503
1587.65	0.419
1596.19	0.284
1604.73	0.089
1613.26	0.03
1621.8	0.1221
1630.34	0.447
1638.88	0.466
1647.41	0.171
1655.95	0.077
1664.49	0.049
1673.03	0.033
1681.56	0.041
1690.1	0.115
1698.64	0.287
1707.17	0.427
1715.71	0.571
1724.25	0.676
1732.79	0.769
1741.32	0.828
1749.86	0.857
1758.4	0.882
1766.94	0.91
1775.47	0.933
1784.01	0.953
1792.55	0.968
1801.08	0.981
1809.62	0.993
1818.16	1.003
1826.7	1.009
1835.23	1.011
1843.77	1.011
1852.31	1.011
1860.85	1.011
1869.38	1.009
1877.92	1.007
1886.46	1.001
1894.99	1
1903.53	1.001
1912.07	0.996
1920.61	0.953
1929.14	0.981
1937.68	1.001
1946.22	1.001
1954.76	1.001
1963.29	1.002
1971.83	1.005
1980.37	1.007
1988.91	1.011
1997.44	1.015
2005.98	1.017
2014.52	1.017
2023.05	1.017
2031.59	1.0135
2040.13	1.0095
2048.67	1.007
2057.2	1.0015
2065.74	1
2074.28	0.998
2082.82	0.9965
2091.35	0.9935
2099.89	0.9895
2108.43	0.986
2116.96	0.985
2125.5	0.979
2134.04	0.976
2142.58	0.9735
2151.11	0.973
2159.65	0.972
2168.19	0.967
2176.73	0.958
2185.26	0.954
2193.8	0.956
2202.34	0.958
2210.87	0.96
2219.41	0.957
2227.95	0.955
2236.49	0.9495
2245.02	0.945
2253.56	0.9375
2262.1	0.9289
2270.64	0.9205
2279.17	0.9205
2287.71	0.9245
2296.25	0.932
2304.79	0.933
2313.32	0.933
2321.86	0.933
2330.4	0.933
2338.93	0.933
2347.47	0.9335
2356.01	0.934
2364.55	0.933
2373.08	0.928
2381.62	0.927
2390.16	0.923
2398.7	0.92
2407.23	0.913
2415.77	0.909
2424.31	0.908
2432.84	0.911
2441.38	0.912
2449.92	0.912
2458.46	0.91
2466.99	0.9085
2475.53	0.905
2484.07	0.902
2492.61	0.9
2501.14	0.9
2509.68	0.9
2518.22	0.9
2526.75	0.902
2535.29	0.908
2543.83	0.908
2552.37	0.908
2560.9	0.9045
2569.44	0.902
2577.98	0.902
2586.52	0.901
2595.05	0.9
2603.59	0.8975
2612.13	0.8935
2620.67	0.8909
2629.2	0.886
2637.74	0.8805
2646.28	0.878
2654.81	0.8749
2663.35	0.872
2671.89	0.8669
2680.43	0.8615
2688.96	0.8565
2697.5	0.8509
2706.04	0.842
2714.58	0.8344
2723.11	0.8219
2731.65	0.813
2740.19	0.813
2748.72	0.8109
2757.26	0.8009
2765.8	0.7759
2774.34	0.762
2782.87	0.762
2791.41	0.7575
2799.95	0.7378
2808.49	0.6922
2817.02	0.6994
2825.56	0.7557
2834.1	0.7827
2842.63	0.7925
2851.17	0.7975
2859.71	0.8051
2868.25	0.808
2876.78	0.806
2885.32	0.8029
2893.86	0.7969
2902.4	0.7874
2910.93	0.7769
2919.47	0.7615
2928.01	0.7525
2936.54	0.7485
2945.08	0.7405
2953.62	0.7279
2962.16	0.713
2970.69	0.7075
2979.23	0.6995
2987.77	0.6835
2996.31	0.676
3004.84	0.6599
3013.38	0.6475
3021.92	0.625
3030.46	0.5742
3038.99	0.5721
3047.53	0.5694
3056.07	0.5519
3064.6	0.5343
3073.14	0.5071
3081.68	0.4826
3090.22	0.4558
3098.75	0.4152
3107.29	0.3563
3115.83	0.3492
3124.37	0.304
3132.9	0.2456
3141.44	0.1879
3149.98	0.129
3158.51	0.0939
3167.05	0.0759
3175.59	0.074
3184.13	0.075
3192.66	0.0785
3201.2	0.081
3209.74	0.1012
3218.28	0.1237
3226.81	0.1501
3235.35	0.1732
3243.89	0.1958
3252.42	0.201
3260.96	0.1974
3269.5	0.1868
3278.04	0.175
3286.57	0.1694
3295.11	0.1639
3303.65	0.1539
3312.19	0.1317
3320.72	0.1045
3329.26	0.0759
3337.8	0.0639
3346.34	0.0574
3354.87	0.055
3363.41	0.0576
3371.95	0.0661
3380.48	0.0985
3389.02	0.1408
3397.56	0.2086
3406.1	0.3283
3414.63	0.4213
3423.17	0.5319
3431.71	0.6364
3440.25	0.7047
3448.78	0.7596
3457.32	0.8032
3465.86	0.8354
3474.39	0.8603
3482.93	0.8809
3491.47	0.8931
3500.01	0.9031
3508.54	0.9096
3517.08	0.913
3525.62	0.913
3534.16	0.914
3542.69	0.914
3551.23	0.916
3559.77	0.916
3568.3	0.916
3576.84	0.9124
3585.38	0.904
3593.92	0.9191
3602.45	0.921
3610.99	0.9192
3619.53	0.918
3628.07	0.917
3636.6	0.914
3645.14	0.914
3653.68	0.914
3662.22	0.913
3670.75	0.914
3679.29	0.913
3687.83	0.909
3696.36	0.909
3704.9	0.912
3713.44	0.9108
3721.98	0.909
3730.51	0.906
3739.05	0.908
3747.59	0.905
3756.13	0.905
3764.66	0.905
3773.2	0.905
