Infrared Spectrum: 2-(Ethylthio)ethylamine
Formula: C 4 H 11 N S
CAS: 36489-03-9
State: gas
Origin: EPA-IR VAPOR PHASE LIBRARY
1/CM	ABSORBANCE
549.8	0.005261
559.445	0.005451
569.09	0.005591
578.735	0.005841
588.38	0.006211
598.025	0.006431
607.67	0.007091
617.315	0.007731
626.96	0.008611
636.605	0.009661
646.251	0.010661
655.896	0.011781
665.541	0.012751
675.186	0.014051
684.831	0.015911
694.476	0.018011
704.121	0.020771
713.766	0.025221
723.411	0.031511
733.056	0.038151
742.701	0.043481
752.346	0.047341
761.991	0.052281
771.636	0.058291
781.281	0.061191
790.926	0.057161
800.571	0.046831
810.216	0.035061
819.861	0.026061
829.507	0.020971
839.152	0.017241
848.797	0.014121
858.442	0.011701
868.087	0.010021
877.732	0.009131
887.377	0.008411
897.022	0.008051
906.667	0.007581
916.312	0.007081
925.957	0.006601
935.602	0.006691
945.247	0.007481
954.892	0.009681
964.537	0.012681
974.182	0.014511
983.827	0.013951
993.472	0.011981
1003.12	0.010731
1012.76	0.010071
1022.41	0.009991
1032.05	0.011131
1041.7	0.014151
1051.34	0.019181
1060.99	0.023011
1070.63	0.021711
1080.28	0.016251
1089.92	0.011751
1099.57	0.008871
1109.21	0.006781
1118.86	0.005311
1128.5	0.004391
1138.15	0.003581
1147.79	0.003101
1157.44	0.002861
1167.08	0.002871
1176.73	0.003081
1186.37	0.003631
1196.02	0.004391
1205.66	0.005981
1215.31	0.008331
1224.95	0.011391
1234.6	0.015091
1244.24	0.022091
1253.89	0.032821
1263.53	0.035641
1273.18	0.027901
1282.82	0.015911
1292.47	0.011261
1302.11	0.009471
1311.76	0.007961
1321.4	0.006971
1331.05	0.007031
1340.69	0.008471
1350.34	0.010291
1359.98	0.012111
1369.63	0.014081
1379.27	0.015541
1388.92	0.014971
1398.56	0.012161
1408.21	0.011491
1417.85	0.012721
1427.5	0.014431
1437.14	0.015641
1446.79	0.016391
1456.43	0.016391
1466.08	0.014681
1475.73	0.011671
1485.37	0.008461
1495.02	0.006471
1504.66	0.005401
1514.31	0.005021
1523.95	0.004671
1533.6	0.004471
1543.24	0.004421
1552.89	0.004541
1562.53	0.005011
1572.18	0.005651
1581.82	0.006911
1591.47	0.008931
1601.11	0.011851
1610.76	0.015621
1620.4	0.017971
1630.05	0.016831
1639.69	0.012551
1649.34	0.008381
1658.98	0.005631
1668.63	0.003951
1678.27	0.003031
1687.92	0.002481
1697.56	0.002061
1707.21	0.001971
1716.85	0.001711
1726.5	0.001701
1736.14	0.001551
1745.79	0.001431
1755.43	0.001401
1765.08	0.001431
1774.72	0.001421
1784.37	0.001531
1794.01	0.001621
1803.66	0.001541
1813.3	0.001521
1822.95	0.001501
1832.59	0.001401
1842.24	0.001361
1851.88	0.001341
1861.53	0.001214
1871.17	0.001065
1880.82	0.0011077
1890.46	0.0008563
1900.11	0.0007828
1909.75	0.0006849
1919.4	0.000637
1929.04	0.0006004
1938.69	0.0005222
1948.33	0.0004917
1957.98	0.000504
1967.62	0.0004638
1977.27	0.0005409
1986.91	0.0004504
1996.56	0.0005944
2006.2	0.0005662
2015.85	0.000648
2025.49	0.0006467
2035.14	0.0005886
2044.78	0.0005659
2054.43	0.0006018
2064.07	0.0006285
2073.72	0.0006031
2083.36	0.0005419
2093.01	0.0004756
2102.65	0.0005085
2112.3	0.0005077
2121.94	0.0005639
2131.59	0.0004929
2141.23	0.0005595
2150.88	0.0006273
2160.52	0.0006559
2170.17	0.0006464
2179.81	0.000592
2189.46	0.0005245
2199.1	0.0005237
2208.75	0.0005621
2218.39	0.0006156
2228.04	0.0005711
2237.68	0.0005849
2247.33	0.0005446
2256.97	0.0004988
2266.62	0.0004358
2276.26	0.0004243
2285.91	0.00028701
2295.55	0.00028969
2305.2	0.00026736
2314.84	0.00029634
2324.49	0.0003189
2334.13	0.00029087
2343.78	0.0004366
2353.42	0.0004343
2363.07	0.0004705
2372.72	0.0004262
2382.36	0.0004806
2392.01	0.0004552
2401.65	0.000511
2411.3	0.0006377
2420.94	0.0006244
2430.59	0.0006329
2440.23	0.0005842
2449.88	0.0005018
2459.52	0.0004507
2469.17	0.0005062
2478.81	0.0005111
2488.46	0.0003713
2498.1	0.0004226
2507.75	0.0004447
2517.39	0.0004102
2527.04	0.00028083
2536.68	0.0003485
2546.33	0.0004065
2555.97	0.0004542
2565.62	0.0004785
2575.26	0.0005197
2584.91	0.0005717
2594.55	0.0005814
2604.2	0.0007179
2613.84	0.0007326
2623.49	0.0008128
2633.13	0.0010667
2642.78	0.0011611
2652.42	0.001521
2662.07	0.001781
2671.71	0.002251
2681.36	0.002511
2691	0.002821
2700.65	0.002941
2710.29	0.003131
2719.94	0.003331
2729.58	0.003711
2739.23	0.004031
2748.87	0.004111
2758.52	0.003601
2768.16	0.003481
2777.81	0.003851
2787.45	0.004751
2797.1	0.006101
2806.74	0.008021
2816.39	0.010941
2826.03	0.015111
2835.68	0.021151
2845.32	0.028311
2854.97	0.035491
2864.61	0.041401
2874.26	0.046571
2883.9	0.048701
2893.55	0.051281
2903.19	0.057841
2912.84	0.072851
2922.48	0.092331
2932.13	0.107481
2941.77	0.104891
2951.42	0.090811
2961.06	0.078331
2970.71	0.073071
2980.35	0.061851
2990	0.042341
2999.64	0.025581
3009.29	0.015051
3018.93	0.009781
3028.58	0.007031
3038.22	0.005621
3047.87	0.004341
3057.51	0.003431
3067.16	0.002931
3076.8	0.002491
3086.45	0.002201
3096.09	0.002031
3105.74	0.001921
3115.38	0.001871
3125.03	0.001731
3134.67	0.001671
3144.32	0.001591
3153.96	0.001661
3163.61	0.001491
3173.25	0.001551
3182.9	0.001531
3192.54	0.001441
3202.19	0.001271
3211.83	0.001251
3221.48	0.0011216
3231.12	0.0009158
3240.77	0.0007443
3250.41	0.0008154
3260.06	0.0004949
3269.7	0.0006683
3279.35	0.0006307
3289	0.0008155
3298.64	0.0008324
3308.29	0.0008153
3317.93	0.0008656
3327.58	0.001461
3337.22	0.001791
3346.87	0.001821
3356.51	0.001521
3366.16	0.0010278
3375.8	0.001016
3385.45	0.001251
3395.09	0.001651
3404.74	0.001911
3414.38	0.001931
3424.03	0.001371
3433.67	0.0008728
3443.32	0.0006687
3452.96	0.0006303
3462.61	0.0004302
3472.25	0.0005135
3481.9	0.0005067
3491.54	0.0003628
3501.19	0.00028793
3510.83	0.0003947
3520.48	0.0004021
3530.12	0.0005002
3539.77	0.00043
3549.41	0.0005248
3559.06	0.0005233
3568.7	0.0004946
3578.35	0.000522
3587.99	0.0005961
3597.64	0.0004937
3607.28	0.0004739
3616.93	0.0006011
3626.57	0.0003423
3636.22	0.0004826
3645.86	0.0004453
3655.51	0.0001754
3665.15	0.0004145
3674.8	0.00031631
3684.44	0.0004905
3694.09	0.0004455
3703.73	0.0005328
3713.38	0.0004261
3723.02	0.0003512
3732.67	0.0004335
3742.31	0.0004016
3751.96	0.0001953
3761.6	0.0003907
3771.25	0.0003969
3780.89	0.000418
3790.54	0.000236877
3800.18	0.0001696
3809.83	0.0001991
3819.47	2.9e-05
3829.12	0.00031571
3838.76	0.0002592
3848.41	0.000235097
3858.05	0.00029781
3867.7	0.00026635
3877.34	0.00032763
3886.99	0.0003503
3896.63	0.0004052
3906.28	0.000532
3915.92	0.0005128
3925.57	0.0006079
3935.21	0.0005
3944.86	0.0005568
3954.5	0.0005593
3964.15	0.0005161
3973.79	0.0006481
3983.44	0.0007123
3993.08	0.0006222
