Infrared Spectrum: HYDRACRYLONITRILE
Formula: C3 H5 N O
CAS: 109-78-4
State: LIQUID (NEAT)
Class: COBLENTZ III
Instrument: PERKIN-ELMER 21 (GRATING)
Instrument parameters: FILTER CHANGE AT ABOUT 1020 CM^-^1
Sampling: TRANSMISSION
Path length: CAPILLARY
Resolution: 2
Origin: SOUTHERN RESEARCH INSTITUTE
1/CM	TRANSMITTANCE
603.257	0.691
612.306	0.695
621.355	0.699
630.404	0.7
639.453	0.7058
648.502	0.7147
657.551	0.7217
666.599	0.7356
675.648	0.7498
684.697	0.7605
693.746	0.7708
702.795	0.7902
711.844	0.8083
720.893	0.818
729.942	0.831
738.991	0.8333
748.04	0.835
757.089	0.8371
766.138	0.85
775.187	0.849
784.235	0.8615
793.284	0.869
802.333	0.87
811.382	0.8693
820.431	0.8567
829.48	0.8233
838.529	0.8264
847.578	0.7843
856.627	0.7199
865.676	0.8522
874.725	0.8857
883.774	0.889
892.823	0.889
901.871	0.8888
910.92	0.881
919.969	0.88
929.018	0.876
938.067	0.863
947.116	0.8708
956.165	0.876
965.214	0.872
974.263	0.8623
983.312	0.8452
992.361	0.8151
1001.41	0.7942
1010.46	0.7795
1019.51	0.7546
1028.56	0.6962
1037.61	0.5048
1046.65	0.3364
1055.7	0.2093
1064.75	0.1958
1073.8	0.2991
1082.85	0.5027
1091.9	0.7526
1100.95	0.8329
1110	0.8567
1119.05	0.8629
1128.09	0.8668
1137.14	0.866
1146.19	0.863
1155.24	0.8524
1164.29	0.8448
1173.34	0.8232
1182.39	0.7832
1191.44	0.731
1200.49	0.7502
1209.53	0.7923
1218.58	0.8143
1227.63	0.8098
1236.68	0.7929
1245.73	0.7669
1254.78	0.7744
1263.83	0.8169
1272.88	0.821
1281.93	0.821
1290.98	0.8025
1300.02	0.788
1309.07	0.7603
1318.12	0.7334
1327.17	0.688
1336.22	0.7194
1345.27	0.762
1354.32	0.7616
1363.37	0.7549
1372.42	0.7347
1381.46	0.6841
1390.51	0.6618
1399.56	0.6433
1408.61	0.6071
1417.66	0.555
1426.71	0.599
1435.76	0.6552
1444.81	0.7347
1453.86	0.777
1462.9	0.801
1471.95	0.793
1481	0.7917
1490.05	0.8103
1499.1	0.8601
1508.15	0.8735
1517.2	0.8835
1526.25	0.884
1535.3	0.887
1544.34	0.888
1553.39	0.888
1562.44	0.889
1571.49	0.891
1580.54	0.891
1589.59	0.889
1598.64	0.891
1607.69	0.891
1616.74	0.889
1625.79	0.887
1634.83	0.885
1643.88	0.887
1652.93	0.888
1661.98	0.888
1671.03	0.889
1680.08	0.889
1689.13	0.891
1698.18	0.892
1707.23	0.894
1716.27	0.9025
1725.32	0.905
1734.37	0.907
1743.42	0.907
1752.47	0.907
1761.52	0.906
1770.57	0.904
1779.62	0.9
1788.67	0.9
1797.71	0.898
1806.76	0.8986
1815.81	0.898
1824.86	0.9006
1833.91	0.903
1842.96	0.9015
1852.01	0.902
1861.06	0.904
1870.11	0.901
1879.16	0.9
1888.2	0.898
1897.25	0.894
1906.3	0.894
1915.35	0.896
1924.4	0.898
1933.45	0.898
1942.5	0.9009
1951.55	0.902
1960.6	0.9002
1969.64	0.898
1978.69	0.898
1987.74	0.8992
1996.79	0.898
2005.84	0.897
2014.89	0.897
2023.94	0.896
2032.99	0.896
2042.04	0.896
2051.08	0.896
2060.13	0.894
2069.18	0.8935
2078.23	0.893
2087.28	0.892
2096.33	0.891
2105.38	0.891
2114.43	0.891
2123.48	0.891
2132.52	0.891
2141.57	0.893
2150.62	0.894
2159.67	0.894
2168.72	0.894
2177.77	0.8935
2186.82	0.892
2195.87	0.891
2204.92	0.888
2213.97	0.883
2223.01	0.88
2232.06	0.8729
2241.11	0.8539
2250.16	0.7862
2259.21	0.6307
2268.26	0.6287
2277.31	0.7773
2286.36	0.8676
2295.41	0.8835
2304.45	0.887
2313.5	0.8845
2322.55	0.881
2331.6	0.881
2340.65	0.881
2349.7	0.881
2358.75	0.881
2367.8	0.883
2376.85	0.887
2385.89	0.884
2394.94	0.881
2403.99	0.88
2413.04	0.879
2422.09	0.879
2431.14	0.876
2440.19	0.876
2449.24	0.875
2458.29	0.875
2467.33	0.875
2476.38	0.875
2485.43	0.8755
2494.48	0.878
2503.53	0.878
2512.58	0.8755
2521.63	0.8755
2530.68	0.8755
2539.73	0.876
2548.78	0.876
2557.82	0.87
2566.87	0.867
2575.92	0.87
2584.97	0.871
2594.02	0.869
2603.07	0.866
2612.12	0.8615
2621.17	0.859
2630.22	0.859
2639.26	0.861
2648.31	0.8585
2657.36	0.858
2666.41	0.8565
2675.46	0.856
2684.51	0.856
2693.56	0.854
2702.61	0.8535
2711.66	0.8495
2720.7	0.8445
2729.75	0.844
2738.8	0.8445
2747.85	0.843
2756.9	0.8395
2765.95	0.834
2775	0.828
2784.05	0.821
2793.1	0.8145
2802.15	0.81
2811.19	0.8025
2820.24	0.7925
2829.29	0.7854
2838.34	0.775
2847.39	0.771
2856.44	0.7575
2865.49	0.7495
2874.54	0.7265
2883.59	0.6675
2892.63	0.644
2901.68	0.6395
2910.73	0.6465
2919.78	0.659
2928.83	0.6525
2937.88	0.646
2946.93	0.645
2955.98	0.645
2965.03	0.647
2974.07	0.6585
2983.12	0.6973
2992.17	0.7505
3001.22	0.7876
3010.27	0.8095
3019.32	0.811
3028.37	0.812
3037.42	0.81
3046.47	0.81
3055.51	0.809
3064.56	0.8055
3073.61	0.798
3082.66	0.7925
3091.71	0.7835
3100.76	0.7785
3109.81	0.774
3118.86	0.773
3127.91	0.768
3136.96	0.762
3146	0.749
3155.05	0.74
3164.1	0.7324
3173.15	0.7065
3182.2	0.674
3191.25	0.667
3200.3	0.644
3209.35	0.634
3218.4	0.618
3227.44	0.6005
3236.49	0.585
3245.54	0.5605
3254.59	0.534
3263.64	0.5225
3272.69	0.5085
3281.74	0.496
3290.79	0.477
3299.84	0.4614
3308.88	0.4353
3317.93	0.416
3326.98	0.399
3336.03	0.387
3345.08	0.3735
3354.13	0.3605
3363.18	0.346
3372.23	0.3334
3381.28	0.318
3390.32	0.3109
3399.37	0.301
3408.42	0.291
3417.47	0.2865
3426.52	0.28
3435.57	0.28
3444.62	0.2815
3453.67	0.285
3462.72	0.285
3471.77	0.284
3480.81	0.2855
3489.86	0.2895
3498.91	0.3021
3507.96	0.318
3517.01	0.342
3526.06	0.3656
3535.11	0.3765
3544.16	0.3995
3553.21	0.434
3562.25	0.476
3571.3	0.501
3580.35	0.5206
3589.4	0.5615
3598.45	0.602
3607.5	0.6365
3616.55	0.6676
3625.6	0.698
3634.65	0.7405
3643.69	0.7581
3652.74	0.7881
3661.79	0.814
3670.84	0.8175
3679.89	0.8251
3688.94	0.835
3697.99	0.842
3707.04	0.851
3716.09	0.854
3725.14	0.855
3734.18	0.8585
3743.23	0.861
3752.28	0.862
3761.33	0.861
3770.38	0.858
3779.43	0.861
3788.48	0.861
3797.53	0.861
