Infrared Spectrum: 3-Hydroxypropionitrile
Formula: C 3 H 5 N O
CAS: 109-78-4
State: gas
Origin: EPA-IR VAPOR PHASE LIBRARY
1/CM	ABSORBANCE
549.8	0.00109
559.445	0.00144
569.09	0.00132
578.734	0.00142
588.379	0.0009095
598.024	0.0006828
607.669	0.00068
617.313	0.0005385
626.958	0.0005759
636.603	0.0004773
646.248	0.0004755
655.893	0.0004591
665.537	0.0007024
675.182	0.0005883
684.827	0.0007235
694.472	0.0009291
704.116	0.0008965
713.761	0.0008836
723.406	0.0007104
733.051	0.0006855
742.695	0.0006792
752.34	0.0006288
761.985	0.0005704
771.63	0.0006902
781.275	0.0007252
790.919	0.0008586
800.564	0.0009418
810.209	0.001
819.854	0.00125
829.498	0.00173
839.143	0.0022
848.788	0.00189
858.433	0.00196
868.078	0.00171
877.722	0.00147
887.367	0.00113
897.012	0.001
906.657	0.00111
916.301	0.00134
925.946	0.00209
935.591	0.00273
945.236	0.00312
954.88	0.00324
964.525	0.00272
974.17	0.00288
983.815	0.00342
993.46	0.00459
1003.1	0.00616
1012.75	0.00867
1022.39	0.01243
1032.04	0.01912
1041.68	0.02861
1051.33	0.0351
1060.97	0.03623
1070.62	0.0264
1080.26	0.01942
1089.91	0.01145
1099.55	0.0062
1109.2	0.00359
1118.84	0.00255
1128.49	0.00235
1138.13	0.00227
1147.78	0.00242
1157.42	0.00271
1167.07	0.00311
1176.71	0.00339
1186.36	0.00351
1196	0.0036
1205.64	0.00402
1215.29	0.0039
1224.93	0.00399
1234.58	0.00382
1244.22	0.00389
1253.87	0.00366
1263.51	0.00342
1273.16	0.00363
1282.8	0.00368
1292.45	0.00394
1302.09	0.0042
1311.74	0.00445
1321.38	0.00442
1331.03	0.00474
1340.67	0.00476
1350.32	0.00479
1359.96	0.00536
1369.61	0.00637
1379.25	0.00709
1388.9	0.00722
1398.54	0.00715
1408.18	0.00595
1417.83	0.00526
1427.47	0.00464
1437.12	0.00399
1446.76	0.00322
1456.41	0.00249
1466.05	0.00198
1475.7	0.00172
1485.34	0.00143
1494.99	0.00121
1504.63	0.0009755
1514.28	0.0006993
1523.92	0.000592
1533.57	0.0004932
1543.21	0.0004328
1552.86	0.0004647
1562.5	0.0003557
1572.15	0.0003714
1581.79	0.0003666
1591.44	0.000271
1601.08	0.0002226
1610.73	0.000207
1620.37	0.000205
1630.01	0.0002477
1639.66	0.0001961
1649.3	0.0002517
1658.95	0.0002572
1668.59	0.0003314
1678.24	0.0003572
1687.88	0.0002565
1697.53	0.000292
1707.17	0.0002302
1716.82	0.0003057
1726.46	0.0002132
1736.11	0.0002841
1745.75	0.0001554
1755.4	0.0001685
1765.04	0.0001628
1774.69	0.0001885
1784.33	0.0002244
1793.98	0.000194
1803.62	0.0002092
1813.27	0.0002085
1822.91	0.0002332
1832.55	0.0001915
1842.2	0.000226
1851.84	0.0001822
1861.49	0.0002635
1871.13	0.0003415
1880.78	0.0003277
1890.42	0.0003192
1900.07	0.0003622
1909.71	0.0003625
1919.36	0.0003762
1929	0.0003075
1938.65	0.0003097
1948.29	0.0002883
1957.94	0.0002151
1967.58	0.0002728
1977.23	0.000245
1986.87	0.0002808
1996.52	0.0002527
2006.16	0.0002326
2015.81	0.000242
2025.45	0.0002655
2035.1	0.0002725
2044.74	0.0003288
2054.38	0.0004185
2064.03	0.000457
2073.67	0.0005079
2083.32	0.0006224
2092.96	0.0006743
2102.61	0.0006567
2112.25	0.0006495
2121.9	0.0005455
2131.54	0.0005234
2141.19	0.000458
2150.83	0.0004007
2160.48	0.0003331
2170.12	0.000376
2179.77	0.0002927
2189.41	0.0003597
2199.06	0.0003181
2208.7	0.000398
2218.35	0.0004344
2227.99	0.0005671
2237.64	0.000748
2247.28	0.00105
2256.92	0.00103
2266.57	0.0009455
2276.21	0.0006959
2285.86	0.0004891
2295.5	0.0004224
2305.15	0.0004355
2314.79	0.0004424
2324.44	0.0004523
2334.08	0.0003919
2343.73	0.0004462
2353.37	0.0004732
2363.02	0.0004835
2372.66	0.0005515
2382.31	0.000444
2391.95	0.0005278
2401.6	0.000522
2411.24	0.0005514
2420.89	0.000533
2430.53	0.0005711
2440.18	0.0006248
2449.82	0.0005498
2459.47	0.0004952
2469.11	0.0005492
2478.75	0.0004459
2488.4	0.0004307
2498.04	0.0004932
2507.69	0.0004554
2517.33	0.0004392
2526.98	0.0004387
2536.62	0.0004989
2546.27	0.0003619
2555.91	0.0004636
2565.56	0.0004249
2575.2	0.0003756
2584.85	0.0005052
2594.49	0.0004407
2604.14	0.0005546
2613.78	0.0005504
2623.43	0.0005022
2633.07	0.0006256
2642.72	0.0005828
2652.36	0.0005409
2662.01	0.0004852
2671.65	0.0004938
2681.29	0.0005846
2690.94	0.0006464
2700.58	0.0007038
2710.23	0.0007788
2719.87	0.0008303
2729.52	0.0008266
2739.16	0.0009388
2748.81	0.0009769
2758.45	0.00102
2768.1	0.0009797
2777.74	0.00112
2787.39	0.0011
2797.03	0.00112
2806.68	0.00122
2816.32	0.00133
2825.97	0.00148
2835.61	0.0017
2845.26	0.00208
2854.9	0.00243
2864.55	0.00324
2874.19	0.00463
2883.84	0.00641
2893.48	0.00822
2903.12	0.00927
2912.77	0.00881
2922.41	0.00882
2932.06	0.00932
2941.7	0.00991
2951.35	0.01112
2960.99	0.01105
2970.64	0.01071
2980.28	0.0087
2989.93	0.00674
2999.57	0.00462
3009.22	0.00263
3018.86	0.00173
3028.51	0.00105
3038.15	0.0007353
3047.8	0.0006674
3057.44	0.0006735
3067.09	0.0006254
3076.73	0.0006071
3086.38	0.0006906
3096.02	0.0006018
3105.67	0.000452
3115.31	0.0004899
3124.95	0.0004864
3134.6	0.0004485
3144.24	0.0003844
3153.89	0.0003799
3163.53	0.0004642
3173.18	0.0003787
3182.82	0.0004433
3192.47	0.0005305
3202.11	0.0003825
3211.76	0.0004204
3221.4	0.0003842
3231.05	0.0003521
3240.69	0.0004003
3250.34	0.0005842
3259.98	0.0004802
3269.63	0.000438
3279.27	0.000409
3288.92	0.0003473
3298.56	0.0004244
3308.21	0.000465
3317.85	0.000477
3327.49	0.0004322
3337.14	0.0004106
3346.78	0.0004734
3356.43	0.0004407
3366.07	0.0005039
3375.72	0.0004371
3385.36	0.0005118
3395.01	0.0003805
3404.65	0.0004689
3414.3	0.0005835
3423.94	0.0005097
3433.59	0.0005535
3443.23	0.000692
3452.88	0.0006334
3462.52	0.0006785
3472.17	0.0005761
3481.81	0.0006468
3491.46	0.0005874
3501.1	0.0006307
3510.75	0.0006831
3520.39	0.0007371
3530.04	0.0007926
3539.68	0.0008353
3549.32	0.000879
3558.97	0.0008034
3568.61	0.00107
3578.26	0.00102
3587.9	0.00115
3597.55	0.00132
3607.19	0.00175
3616.84	0.00265
3626.48	0.00424
3636.13	0.00483
3645.77	0.00688
3655.42	0.00801
3665.06	0.00851
3674.71	0.00794
3684.35	0.00613
3694	0.00347
3703.64	0.00184
3713.29	0.00127
3722.93	0.00101
3732.58	0.0009918
3742.22	0.0009421
3751.86	0.0009907
3761.51	0.0008102
3771.15	0.0008131
3780.8	0.0006539
3790.44	0.0006076
3800.09	0.0006597
3809.73	0.0006264
3819.38	0.0005778
3829.02	0.0006575
3838.67	0.0006631
3848.31	0.00061
3857.96	0.0005293
3867.6	0.00072
3877.25	0.0004405
3886.89	0.000652
3896.54	0.0004654
3906.18	0.0005982
3915.83	0.0004876
3925.47	0.000552
3935.12	0.0005627
3944.76	0.0005697
3954.41	0.0007349
3964.05	0.0006504
3973.69	0.0004258
3983.34	0.0005532
3992.98	0.0005185
