Infrared Spectrum: CYCLOHEXENE
Formula: C6 H10
CAS: 110-83-8
State: LIQUID (NEAT)
Class: COBLENTZ II
Instrument: BECKMAN IR-12 (GRATING)
Instrument parameters: FILTERS AT 303, 473, 790, 1036, 1880, 2930 CM^-^1. GRATING CHANGE: 300.5, 650.0, 2000.4 CM^-^1
Sampling: TRANSMISSION
Path length: CAPILLARY FOR 4000-400, AND 0.01 CM (CsBr CELL) FOR 420-240
Resolution: 2
Origin: BECKMAN INSTRUMENTS, KENNETH STINE
1/CM	TRANSMITTANCE
4000	0.8734
3990	0.8736
3980	0.8734
3970	0.872
3960	0.8707
3950	0.8704
3940	0.8707
3930	0.8728
3920	0.8775
3910	0.8818
3900	0.8849
3890	0.8863
3880	0.8862
3870	0.8864
3860	0.8866
3850	0.8868
3840	0.8871
3830	0.8873
3820	0.8875
3810	0.8871
3800	0.8867
3790	0.8862
3780	0.8858
3770	0.8854
3760	0.8851
3750	0.8848
3740	0.8846
3730	0.8845
3720	0.8845
3710	0.8847
3700	0.885
3690	0.8854
3680	0.8862
3670	0.8882
3660	0.89
3650	0.8903
3640	0.8902
3630	0.8893
3620	0.8886
3610	0.888
3600	0.8873
3590	0.8861
3580	0.8848
3570	0.8849
3560	0.8874
3550	0.8895
3540	0.8894
3530	0.8881
3520	0.8868
3510	0.8859
3500	0.8856
3490	0.8856
3480	0.8865
3470	0.888
3460	0.8886
3450	0.8863
3440	0.885
3430	0.8843
3420	0.8833
3410	0.8818
3400	0.8805
3390	0.8795
3380	0.8792
3370	0.8846
3360	0.886
3350	0.8873
3340	0.8888
3330	0.8878
3320	0.8868
3310	0.8827
3300	0.8775
3290	0.8774
3280	0.8827
3270	0.8862
3260	0.8887
3250	0.8894
3240	0.89
3230	0.89
3220	0.888
3210	0.8867
3200	0.8885
3190	0.8905
3180	0.8936
3170	0.8953
3160	0.8961
3150	0.8962
3140	0.8959
3130	0.8937
3120	0.8898
3110	0.8839
3100	0.8742
3090	0.862
3080	0.8491
3070	0.7975
3060	0.7692
3050	0.7943
3040	0.7346
3030	0.4536
3020	0.1987
3010	0.6067
3000	0.7058
2990	0.6571
2980	0.6493
2970	0.5879
2960	0.4597
2950	0.3154
2940	0.0485
2930	0.0259
2920	0.0343
2910	0.0855
2900	0.148
2890	0.1894
2880	0.1971
2870	0.2697
2860	0.1644
2850	0.2803
2840	0.1106
2830	0.3245
2820	0.6332
2810	0.7715
2800	0.8001
2790	0.8195
2780	0.8421
2770	0.8391
2760	0.8695
2750	0.886
2740	0.8878
2730	0.8918
2720	0.895
2710	0.88
2700	0.887
2690	0.883
2680	0.8665
2670	0.8577
2660	0.7801
2650	0.8378
2640	0.8765
2630	0.9011
2620	0.909
2610	0.906
2600	0.91
2590	0.9061
2580	0.9002
2570	0.9006
2560	0.912
2550	0.9182
2540	0.9186
2530	0.9152
2520	0.9165
2510	0.9173
2500	0.9152
2490	0.9105
2480	0.906
2470	0.9041
2460	0.9109
2450	0.9144
2440	0.9152
2430	0.916
2420	0.9163
2410	0.9157
2400	0.9151
2390	0.9148
2380	0.9148
2370	0.9148
2360	0.9148
2350	0.9148
2340	0.915
2330	0.9152
2320	0.9154
2310	0.9156
2300	0.9161
2290	0.9168
2280	0.9175
2270	0.9181
2260	0.9188
2250	0.9194
2240	0.92
2230	0.9206
2220	0.9212
2210	0.9218
2200	0.9167
2190	0.9189
2180	0.9211
2170	0.9227
2160	0.9237
2150	0.9225
2140	0.9218
2130	0.9223
2120	0.9213
2110	0.9112
2100	0.9109
2090	0.9228
2080	0.9243
2070	0.9251
2060	0.9258
2050	0.9265
2040	0.9273
2030	0.9278
2020	0.9265
2010	0.9228
2000	0.9216
1990	0.9225
1980	0.9218
1970	0.9193
1960	0.9192
1950	0.9157
1940	0.9171
1930	0.9168
1920	0.9133
1910	0.9174
1900	0.9188
1890	0.9035
1880	0.897
1870	0.9142
1860	0.9195
1850	0.9218
1840	0.9212
1830	0.9214
1820	0.922
1810	0.9214
1800	0.9206
1790	0.9185
1780	0.9235
1770	0.9236
1760	0.9218
1750	0.9208
1740	0.9205
1730	0.918
1720	0.9121
1710	0.9114
1700	0.9118
1690	0.887
1680	0.8815
1670	0.9046
1660	0.8477
1650	0.8251
1640	0.8917
1630	0.8974
1620	0.8997
1610	0.8781
1600	0.8821
1590	0.9087
1580	0.9198
1570	0.9211
1560	0.9198
1550	0.9211
1540	0.9125
1530	0.9108
1520	0.9146
1510	0.9121
1500	0.9088
1490	0.9045
1480	0.8884
1470	0.8475
1460	0.7042
1450	0.4924
1440	0.4024
1430	0.7949
1420	0.8495
1410	0.8807
1400	0.8781
1390	0.8573
1380	0.8821
1370	0.8993
1360	0.8916
1350	0.8744
1340	0.8556
1330	0.8775
1320	0.8489
1310	0.8854
1300	0.9127
1290	0.9121
1280	0.8989
1270	0.7997
1260	0.8743
1250	0.8985
1240	0.8938
1230	0.9108
1220	0.9154
1210	0.9199
1200	0.923
1190	0.9242
1180	0.9228
1170	0.9146
1160	0.8992
1150	0.8685
1140	0.4778
1130	0.8497
1120	0.8828
1110	0.8905
1100	0.8992
1090	0.9002
1080	0.9005
1070	0.8915
1060	0.8824
1050	0.8738
1040	0.6989
1030	0.8628
1020	0.885
1010	0.866
1000	0.8875
990	0.9013
980	0.9113
970	0.9186
960	0.9206
950	0.9201
940	0.9175
930	0.9018
920	0.5592
910	0.8094
900	0.8659
890	0.9011
880	0.6204
870	0.8557
860	0.918
850	0.931
840	0.9325
830	0.9316
820	0.9234
810	0.8852
800	0.9302
790	0.9447
780	0.9453
770	0.9425
760	0.9371
750	0.9289
740	0.9157
730	0.8651
720	0.3303
710	0.8421
700	0.9118
690	0.9091
680	0.8503
670	0.7781
660	0.7471
650	0.4355
640	0.2696
630	0.6769
620	0.8306
610	0.8882
600	0.9118
590	0.9228
580	0.9271
570	0.928
560	0.93
550	0.9324
540	0.9335
530	0.9339
520	0.9263
510	0.9225
500	0.9159
490	0.9067
480	0.8955
470	0.8808
460	0.8453
450	0.8091
440	0.8254
430	0.7862
420	0.7424
410	0.6811
400	0.7628
390	0.9245
380	0.937
370	0.937
360	0.9332
350	0.9349
340	0.9371
330	0.9085
320	0.9077
310	0.8912
300	0.8513
290	0.8093
280	0.7334
270	0.6448
260	0.5315
250	0.4182
