Infrared Spectrum: Cyclohexene
Formula: C6 H10
CAS: 110-83-8
State: GAS (60 mmHg, N2 ADDED, TOTAL PRESSURE 600 mmHg)
Class: COBLENTZ
Instrument: DOW KBr FOREPRISM-GRATING
Instrument parameters: GRATING CHANGED AT 5.0, 7.5, 15.0 MICRON
Sampling: TRANSMISSION
Path length: 5 CM
Resolution: 2
Origin: DOW CHEMICAL COMPANY
1/CM	TRANSMITTANCE
385	0.8728
394	0.871
403	0.8679
412	0.864
421	0.8605
430	0.857
439	0.8534
448	0.8498
457	0.8706
466	0.8753
475	0.8816
484	0.8859
493	0.8853
502	0.8836
511	0.8801
520	0.8754
529	0.8698
538	0.8651
547	0.8641
556	0.8678
565	0.8735
574	0.8766
583	0.8745
592	0.8688
601	0.8477
610	0.7938
619	0.6633
628	0.6025
637	0.3005
646	0.528
655	0.5131
664	0.6042
673	0.7321
682	0.8093
691	0.8442
700	0.7674
709	0.7432
718	0.2082
727	0.7651
736	0.762
745	0.8611
754	0.8812
763	0.8852
772	0.8868
781	0.8961
790	0.8879
799	0.8725
808	0.8615
817	0.8632
826	0.8728
835	0.8885
844	0.888
853	0.8714
862	0.8008
871	0.7294
880	0.7014
889	0.7795
898	0.7919
907	0.7319
916	0.4365
925	0.7562
934	0.7819
943	0.8485
952	0.8664
961	0.8678
970	0.8663
979	0.8572
988	0.8415
997	0.8315
1006	0.7891
1015	0.8222
1024	0.773
1033	0.7497
1042	0.7585
1051	0.7724
1060	0.8495
1069	0.8546
1078	0.8604
1087	0.8619
1096	0.8584
1105	0.8501
1114	0.8299
1123	0.777
1132	0.769
1141	0.648
1150	0.7458
1159	0.7942
1168	0.8351
1177	0.8512
1186	0.8506
1195	0.8453
1204	0.8416
1213	0.8364
1222	0.8204
1231	0.8047
1240	0.8053
1249	0.7898
1258	0.7734
1267	0.7509
1276	0.7774
1285	0.7999
1294	0.8239
1303	0.8162
1312	0.801
1321	0.7762
1330	0.7421
1339	0.733
1348	0.7299
1357	0.6687
1366	0.6669
1375	0.6847
1384	0.7186
1393	0.7545
1402	0.7874
1411	0.7963
1420	0.7791
1429	0.642
1438	0.5236
1447	0.4508
1456	0.324
1465	0.5931
1474	0.7127
1483	0.8003
1492	0.82
1501	0.8235
1510	0.8228
1519	0.8114
1528	0.8154
1537	0.8099
1546	0.8217
1555	0.823
1564	0.829
1573	0.824
1582	0.8228
1591	0.8049
1600	0.7913
1609	0.788
1618	0.7912
1627	0.7932
1636	0.7716
1645	0.7163
1654	0.6881
1663	0.6959
1672	0.7556
1681	0.784
1690	0.791
1699	0.7892
1708	0.8066
1717	0.801
1726	0.807
1735	0.8003
1744	0.8055
1753	0.81
1762	0.8142
1771	0.8174
1780	0.8176
1789	0.8166
1798	0.8215
1807	0.8234
1816	0.823
1825	0.8243
1834	0.8288
1843	0.828
1852	0.8243
1861	0.8194
1870	0.8111
1879	0.8045
1888	0.8009
1897	0.8011
1906	0.8152
1915	0.8178
1924	0.8179
1933	0.8219
1942	0.8238
1951	0.8257
1960	0.8254
1969	0.8257
1978	0.8264
1987	0.8274
1996	0.8314
2005	0.8334
2014	0.8325
2023	0.8315
2032	0.8306
2041	0.8297
2050	0.8289
2059	0.828
2068	0.8272
2077	0.8264
2086	0.8252
2095	0.8237
2104	0.8223
2113	0.8216
2122	0.8267
2131	0.8284
2140	0.8284
2149	0.8285
2158	0.8285
2167	0.8284
2176	0.8282
2185	0.827
2194	0.8245
2203	0.823
2212	0.8224
2221	0.8248
2230	0.8274
2239	0.8289
2248	0.8291
2257	0.8285
2266	0.828
2275	0.8259
2284	0.8237
2293	0.8244
2302	0.8247
2311	0.8249
2320	0.8251
2329	0.8254
2338	0.826
2347	0.8263
2356	0.8261
2365	0.8257
2374	0.8264
2383	0.8271
2392	0.8279
2401	0.8276
2410	0.8305
2419	0.8374
2428	0.842
2437	0.8421
2446	0.8414
2455	0.8399
2464	0.8375
2473	0.8327
2482	0.8289
2491	0.8305
2500	0.8337
2509	0.8368
2518	0.84
2527	0.8429
2536	0.8457
2545	0.8475
2554	0.8445
2563	0.8355
2572	0.8302
2581	0.8291
2590	0.8356
2599	0.8399
2608	0.8394
2617	0.8363
2626	0.8313
2635	0.8257
2644	0.8124
2653	0.783
2662	0.7541
2671	0.7595
2680	0.7771
2689	0.8122
2698	0.8207
2707	0.8257
2716	0.8299
2725	0.8329
2734	0.8347
2743	0.8345
2752	0.8296
2761	0.8211
2770	0.8087
2779	0.7921
2788	0.782
2797	0.7815
2806	0.7893
2815	0.7899
2824	0.7228
2833	0.4757
2842	0.2438
2851	0.1429
2860	0.1008
2869	0.097
2878	0.181
2887	0.1769
2896	0.1738
2905	0.1663
2914	0.0392
2923	0.0125
2932	0.0119
2941	0.0151
2950	0.0219
2959	0.0808
2968	0.4202
2977	0.5749
2986	0.6666
2995	0.6767
3004	0.6716
3013	0.5433
3022	0.2328
3031	0.1543
3040	0.1624
3049	0.3739
3058	0.7145
3067	0.7302
3076	0.7346
3085	0.7554
3094	0.8017
3103	0.8271
3112	0.8408
3121	0.8489
3130	0.8525
3139	0.8547
3148	0.8559
3157	0.8562
3166	0.8558
3175	0.8542
3184	0.852
3193	0.8493
3202	0.8493
3211	0.8507
3220	0.8526
3229	0.8545
3238	0.8575
3247	0.859
3256	0.8592
3265	0.8575
3274	0.8525
3283	0.8468
3292	0.841
3301	0.8426
3310	0.8447
3319	0.8481
3328	0.857
3337	0.8588
3346	0.8588
3355	0.8581
3364	0.8572
3373	0.8563
3382	0.8569
3391	0.8583
3400	0.8603
3409	0.8626
3418	0.8641
3427	0.865
3436	0.8659
3445	0.8668
3454	0.8675
3463	0.8679
3472	0.8683
3481	0.8683
3490	0.8684
3499	0.868
3508	0.8676
3517	0.8667
3526	0.8653
3535	0.8646
3544	0.8648
3553	0.8648
3562	0.8647
3571	0.8653
3580	0.8658
3589	0.8658
3598	0.8655
3607	0.8647
3616	0.8645
3625	0.8656
3634	0.8638
3643	0.8585
3652	0.8599
3661	0.8603
3670	0.8581
3679	0.8606
3688	0.8619
3697	0.8606
3706	0.8592
3715	0.8573
3724	0.855
3733	0.8524
3742	0.8507
3751	0.8537
3760	0.862
3769	0.8642
3778	0.8661
