Infrared Spectrum: CYCLOHEXENE
Formula: C6 H10
CAS: 110-83-8
State: LIQUID (NEAT)
Class: COBLENTZ III
Instrument: BECKMAN IR-12 (GRATING)
Instrument parameters: FILTERS AT 303, 473, 790, 1036, 1880, 2930 CM^-^1. GRATING CHANGE: 300.5, 650.0, 2000.4 CM^-^1
Sampling: TRANSMISSION
Path length: 0.0025 CM KBr CELL
Resolution: 2
Origin: BECKMAN INSTRUMENTS, KENNETH STINE
1/CM	TRANSMITTANCE
4000	0.8691
3991	0.8748
3982	0.879
3973	0.8816
3964	0.8836
3955	0.8775
3946	0.8731
3937	0.872
3928	0.8768
3919	0.8852
3910	0.8946
3901	0.9036
3892	0.9109
3883	0.9148
3874	0.9151
3865	0.9143
3856	0.9121
3847	0.9101
3838	0.9108
3829	0.9133
3820	0.9158
3811	0.9181
3802	0.92
3793	0.9168
3784	0.9133
3775	0.9166
3766	0.9147
3757	0.9094
3748	0.9047
3739	0.9068
3730	0.9112
3721	0.9145
3712	0.9171
3703	0.9185
3694	0.9188
3685	0.9182
3676	0.9168
3667	0.9165
3658	0.9186
3649	0.9228
3640	0.9259
3631	0.9265
3622	0.9263
3613	0.9258
3604	0.9249
3595	0.924
3586	0.9235
3577	0.923
3568	0.9225
3559	0.9221
3550	0.922
3541	0.9225
3532	0.9224
3523	0.9192
3514	0.9225
3505	0.9286
3496	0.9281
3487	0.9263
3478	0.9244
3469	0.9236
3460	0.9233
3451	0.9233
3442	0.9232
3433	0.9228
3424	0.9224
3415	0.9215
3406	0.9193
3397	0.9144
3388	0.9105
3379	0.9084
3370	0.9095
3361	0.912
3352	0.9145
3343	0.9167
3334	0.9178
3325	0.9183
3316	0.9149
3307	0.9062
3298	0.8763
3289	0.8784
3280	0.8878
3271	0.8997
3262	0.9128
3253	0.922
3244	0.9275
3235	0.9218
3226	0.9151
3217	0.9112
3208	0.911
3199	0.9125
3190	0.9152
3181	0.9178
3172	0.9199
3163	0.9201
3154	0.9168
3145	0.9139
3136	0.9137
3127	0.9116
3118	0.9039
3109	0.887
3100	0.8605
3091	0.8181
3082	0.7675
3073	0.711
3064	0.5108
3055	0.6067
3046	0.4968
3037	0.2448
3028	0.0099
3019	0.0144
3010	0.1787
3001	0.3874
2992	0.3876
2983	0.3026
2974	0.3409
2965	0.1928
2956	0.0516
2947	0.01
2938	0.0009
2929	0.0023
2920	0.0037
2911	0.0051
2902	0.0066
2893	0.0086
2884	0.0108
2875	0.0177
2866	0.0144
2857	0.0158
2848	0.0178
2839	0.006
2830	0.0232
2821	0.2798
2812	0.5154
2803	0.6038
2794	0.6315
2785	0.7057
2776	0.7085
2767	0.8011
2758	0.8484
2749	0.8605
2740	0.8653
2731	0.8705
2722	0.8755
2713	0.8247
2704	0.8556
2695	0.8561
2686	0.811
2677	0.8018
2668	0.7003
2659	0.5626
2650	0.7325
2641	0.8236
2632	0.8921
2623	0.9087
2614	0.8965
2605	0.9062
2596	0.9133
2587	0.8925
2578	0.8697
2569	0.8866
2560	0.9151
2551	0.9309
2542	0.9314
2533	0.9261
2524	0.9236
2515	0.9225
2506	0.9239
2497	0.9224
2488	0.9088
2479	0.8952
2470	0.897
2461	0.9185
2452	0.9293
2443	0.9334
2434	0.935
2425	0.9345
2416	0.9318
2407	0.9277
2398	0.9248
2389	0.923
2380	0.9323
2371	0.9533
2362	0.9571
2353	0.9499
2344	0.9527
2335	0.9513
2326	0.9443
2317	0.9363
2308	0.9254
2299	0.9268
2290	0.929
2281	0.9249
2272	0.9191
2263	0.9121
2254	0.9064
2245	0.9143
2236	0.9242
2227	0.9248
2218	0.9273
2209	0.9261
2200	0.9034
2191	0.9158
2182	0.9235
2173	0.9237
2164	0.9324
2155	0.9349
2146	0.9289
2137	0.9262
2128	0.9344
2119	0.9367
2110	0.9018
2101	0.8796
2092	0.9261
2083	0.9321
2074	0.9282
2065	0.9299
2056	0.9374
2047	0.9421
2038	0.9389
2029	0.9416
2020	0.942
2011	0.9403
2002	0.9385
1993	0.9327
1984	0.9347
1975	0.937
1966	0.934
1957	0.9267
1948	0.9195
1939	0.9249
1930	0.9205
1921	0.9115
1912	0.899
1903	0.9224
1894	0.9148
1885	0.8238
1876	0.8848
1867	0.9228
1858	0.929
1849	0.9274
1840	0.9215
1831	0.9233
1822	0.9328
1813	0.9349
1804	0.931
1795	0.9192
1786	0.9211
1777	0.9338
1768	0.9403
1759	0.9287
1750	0.9241
1741	0.9228
1732	0.916
1723	0.8996
1714	0.88
1705	0.8913
1696	0.8797
1687	0.7791
1678	0.8187
1669	0.8657
1660	0.5887
1651	0.5714
1642	0.8263
1633	0.8483
1624	0.8601
1615	0.8306
1606	0.7661
1597	0.8312
1588	0.9051
1579	0.9183
1570	0.9225
1561	0.918
1552	0.9171
1543	0.9054
1534	0.864
1525	0.8899
1516	0.9017
1507	0.8883
1498	0.8762
1489	0.8508
1480	0.8141
1471	0.7335
1462	0.4654
1453	0.2375
1444	0.1211
1435	0.0668
1426	0.563
1417	0.7249
1408	0.7931
1399	0.8026
1390	0.7632
1381	0.8436
1372	0.8512
1363	0.8382
1354	0.7572
1345	0.7469
1336	0.738
1327	0.6476
1318	0.633
1309	0.7886
1300	0.8557
1291	0.8611
1282	0.8336
1273	0.716
1264	0.5497
1255	0.7921
1246	0.784
1237	0.8115
1228	0.8533
1219	0.8678
1210	0.8897
1201	0.9012
1192	0.9021
1183	0.8964
1174	0.8834
1165	0.8618
1156	0.8223
1147	0.5812
1138	0.0781
1129	0.7532
1120	0.8321
1111	0.8488
1102	0.8704
1093	0.8728
1084	0.8704
1075	0.8528
1066	0.8135
1057	0.8185
1048	0.6954
1039	0.2984
1030	0.6455
1021	0.8183
1012	0.7403
1003	0.7608
994	0.8171
985	0.8586
976	0.8728
967	0.8743
958	0.8864
949	0.8727
940	0.865
931	0.7939
922	0.6247
913	0.3003
904	0.4764
895	0.8103
886	0.7445
877	0.1178
868	0.5945
859	0.8597
850	0.8958
841	0.9071
832	0.905
823	0.8866
814	0.7621
805	0.8151
796	0.9083
787	0.9227
778	0.9246
769	0.9203
760	0.9067
751	0.88
742	0.8291
733	0.6017
724	0.2317
715	0.1981
706	0.7722
697	0.8149
688	0.7399
679	0.5594
670	0.4546
661	0.4296
652	0.1951
643	0.0075
634	0.036
625	0.4637
616	0.6825
607	0.8188
598	0.8818
589	0.9062
580	0.9094
571	0.9096
562	0.9187
553	0.9281
544	0.9318
535	0.9336
526	0.9344
517	0.9325
508	0.9285
499	0.923
490	0.9171
481	0.9064
472	0.887
463	0.8528
454	0.6025
445	0.7682
436	0.8187
427	0.7939
418	0.7544
409	0.6906
