Infrared Spectrum: Cyclohexene
Formula: C 6 H 10
CAS: 110-83-8
State: gas
Origin: Sadtler Research Labs Under US-EPA Contract
1/CM	ABSORBANCE
450	0.0100535
462	0.00995591
474	0.0112248
486	0.0111272
498	0.0115176
510	0.0116152
522	0.0112248
534	0.010932
546	0.0097607
558	0.0120057
570	0.00917506
582	0.01142
594	0.0143482
606	0.0282084
618	0.0539767
630	0.077988
642	0.0743765
654	0.0823803
666	0.0721316
678	0.0315271
690	0.0220592
702	0.0303558
714	0.0434351
726	0.0262563
738	0.0260611
750	0.00585642
762	0.00185453
774	0.00244018
786	0.0028306
798	0.00614924
810	0.00380667
822	0.00361146
834	0.00214735
846	0.00517317
858	0.0207903
870	0.0281108
882	0.0285989
894	0.0224496
906	0.0281108
918	0.0630541
930	0.0200094
942	0.0135674
954	0.0097607
966	0.0117128
978	0.00995591
990	0.0101511
1002	0.00927266
1014	0.01142
1026	0.0227424
1038	0.0331864
1050	0.0376763
1062	0.0259635
1074	0.0183501
1086	0.0119081
1098	0.0069301
1110	0.00868702
1122	0.017374
1134	0.0209855
1146	0.0220592
1158	0.0186429
1170	0.00878463
1182	0.00488035
1194	0.00497796
1206	0.00614924
1218	0.0083942
1230	0.0118104
1242	0.0129817
1254	0.0169836
1266	0.0184477
1278	0.0131769
1290	0.00771095
1302	0.00722292
1314	0.0121033
1326	0.0175693
1338	0.0181549
1350	0.0127865
1362	0.0105416
1374	0.00780856
1386	0.00761335
1398	0.0082966
1410	0.00819899
1422	0.0237185
1434	0.0576857
1446	0.0836492
1458	0.0736933
1470	0.0385548
1482	0.0142506
1494	0.00292821
1506	0.00292821
1518	0.002733
1530	0.00224496
1542	0.00370907
1554	0.00097607
1566	0.00126889
1578	0.00361146
1590	0.00527078
1602	0.00771095
1614	0.00946788
1626	0.00946788
1638	0.0176669
1650	0.0209855
1662	0.0220592
1674	0.0158123
1686	0.0140554
1698	0.0235233
1710	0.0268419
1722	0.0200094
1734	0.00761335
1746	0.00439231
1758	0.00224496
1770	0.00165932
1782	0.00156171
1794	0.00244018
1806	0.00204975
1818	0.00165932
1830	0.0013665
1842	0.000390428
1854	0.00117128
1866	0.00244018
1878	0.00390428
1890	0.00429471
1902	0.00341625
1914	0.00224496
1926	0.00156171
1938	0.00117128
1950	0.000780856
1962	0.000780856
1974	0.000878463
1986	0.00097607
1998	0.000878463
2010	0.000585642
2022	0
2034	0
2046	0.000585642
2058	0.000878463
2070	0.00097607
2082	0.0013665
2094	0.00253778
2106	0.00244018
2118	0.00204975
2130	0.000878463
2142	0.000878463
2154	0.00107368
2166	0.00156171
2178	0.00156171
2190	0.00244018
2202	0.00234257
2214	0.00175693
2226	0.0013665
2238	0.00195214
2250	0.00253778
2262	0.00302582
2274	0.00244018
2286	0.00195214
2298	0.0013665
2310	0.00117128
2322	0.00156171
2334	0.00126889
2346	0.00185453
2358	0.00341625
2370	0.00292821
2382	0.002733
2394	0.00244018
2406	0.0013665
2418	0.0013665
2430	0.00117128
2442	0.00126889
2454	0.0013665
2466	0.00204975
2478	0.00253778
2490	0.00244018
2502	0.00204975
2514	0.00165932
2526	0.00165932
2538	0.0013665
2550	0.00204975
2562	0.002733
2574	0.00370907
2586	0.00370907
2598	0.00351385
2610	0.00322103
2622	0.00390428
2634	0.0055636
2646	0.00985831
2658	0.0157147
2670	0.0167884
2682	0.0144458
2694	0.00858942
2706	0.00673488
2718	0.00605163
2730	0.00566121
2742	0.0055636
2754	0.00634446
2766	0.00966309
2778	0.0131769
2790	0.0158123
2802	0.0174717
2814	0.0192286
2826	0.0473394
2838	0.162223
2850	0.278278
2862	0.311074
2874	0.29858
2886	0.239235
2898	0.275252
2910	0.423907
2922	0.605847
2934	0.97607
2946	0.735566
2958	0.523759
2970	0.173057
2982	0.072034
2994	0.0495844
3006	0.0600283
3018	0.158709
3030	0.220982
3042	0.214052
3054	0.0990711
3066	0.0342601
3078	0.0265491
3090	0.016886
3102	0.00917506
3114	0.00614924
3126	0.00468514
3138	0.00409949
3150	0.00331864
3162	0.00361146
3174	0.00331864
3186	0.00409949
3198	0.00527078
3210	0.00527078
3222	0.00370907
3234	0.00312342
3246	0.002733
3258	0.00214735
3270	0.00380667
3282	0.00546599
3294	0.00585642
3306	0.00507556
3318	0.00390428
3330	0.00224496
3342	0.00175693
3354	0.00195214
3366	0.002733
3378	0.00380667
3390	0.00390428
3402	0.00380667
3414	0.0028306
3426	0.00204975
3438	0.00126889
3450	0.00126889
3462	0.00185453
3474	0.00214735
3486	0.00224496
3498	0.00292821
3510	0.00224496
3522	0.00126889
3534	0.0028306
3546	0.00214735
3558	0.00156171
3570	0.00361146
3582	0.00312342
3594	0.00429471
3606	0.00409949
3618	0.00439231
3630	0.00575881
3642	0.00527078
3654	0.0069301
3666	0.00585642
3678	0.00595403
3690	0.00439231
3702	0.0041971
3714	0.00390428
3726	0.00361146
3738	0.0055636
3750	0.00517317
3762	0.00585642
3774	0.00429471
3786	0.00497796
3798	0.00429471
3810	0.00488035
3822	0.00507556
3834	0.00468514
3846	0.00575881
3858	0.00575881
3870	0.00644206
3882	0.00507556
3894	0.00488035
3906	0.00478274
3918	0.00575881
3930	0.00614924
3942	0.00644206
3954	0.00497796
3966	0.00517317
