Infrared Spectrum: FORMALDEHYDE
Formula: C H2 O
CAS: 50-00-0
State: SOLUTION (UNKNOWN CONCENTRATION IN CCl4) VS. CCl4
Boiling point: -21 C
Class: COBLENTZ III
Instrument: PERKIN-ELMER 297
Sampling: TRANSMISSION
Path length: 0.1 CM
Resolution: 4
Origin: DOW CHEMICAL COMPANY
1/CM	TRANSMITTANCE
590.139	0.721
599.384	0.699
608.629	0.695
617.874	0.679
627.119	0.656
636.364	0.705
645.609	0.773
654.854	0.794
664.099	0.804
673.344	0.805
682.589	0.798
691.834	0.772
701.079	0.707
710.324	0.676
719.569	0.679
728.814	0.682
738.059	0.683
747.304	0.684
756.549	0.685
765.794	0.685
775.039	0.685
784.284	0.685
793.529	0.687
802.774	0.689
812.019	0.689
821.264	0.689
830.509	0.689
839.754	0.701
848.999	0.72
858.244	0.731
867.489	0.731
876.734	0.726
885.979	0.699
895.224	0.601
904.469	0.48
913.714	0.459
922.959	0.414
932.204	0.249
941.449	0.414
950.694	0.486
959.939	0.484
969.184	0.484
978.429	0.482
987.674	0.486
996.919	0.484
1006.16	0.493
1015.41	0.523
1024.65	0.542
1033.9	0.55
1043.14	0.581
1052.39	0.601
1061.63	0.601
1070.88	0.602
1080.12	0.578
1089.37	0.436
1098.61	0.41
1107.86	0.448
1117.1	0.471
1126.35	0.465
1135.59	0.387
1144.84	0.525
1154.08	0.616
1163.33	0.668
1172.57	0.709
1181.82	0.746
1191.06	0.757
1200.31	0.732
1209.55	0.693
1218.8	0.669
1228.04	0.64
1237.29	0.616
1246.53	0.672
1255.78	0.693
1265.02	0.724
1274.27	0.755
1283.51	0.753
1292.76	0.8
1302	0.82
1311.25	0.831
1320.49	0.836
1329.74	0.847
1338.98	0.854
1348.23	0.853
1357.47	0.848
1366.72	0.85
1375.96	0.85
1385.21	0.815
1394.45	0.832
1403.7	0.833
1412.94	0.833
1422.19	0.822
1431.43	0.814
1440.68	0.815
1449.92	0.805
1459.17	0.786
1468.41	0.74
1477.66	0.7
1486.9	0.6009
1496.15	0.364
1505.39	0.633
1514.64	0.732
1523.88	0.759
1533.13	0.766
1542.37	0.767
1551.62	0.767
1560.86	0.766
1570.11	0.767
1579.35	0.77
1588.6	0.781
1597.84	0.795
1607.09	0.83
1616.33	0.854
1625.58	0.861
1634.82	0.867
1644.07	0.853
1653.31	0.816
1662.56	0.794
1671.8	0.762
1681.05	0.716
1690.29	0.663
1699.54	0.592
1708.78	0.536
1718.03	0.3809
1727.27	0.107
1736.52	0.026
1745.76	0.2241
1755.01	0.419
1764.25	0.525
1773.5	0.599
1782.74	0.646
1791.99	0.704
1801.23	0.753
1810.48	0.784
1819.72	0.804
1828.97	0.823
1838.21	0.841
1847.46	0.853
1856.7	0.86
1865.95	0.866
1875.19	0.871
1884.44	0.875
1893.68	0.88
1902.93	0.882
1912.17	0.885
1921.42	0.886
1930.66	0.887
1939.91	0.887
1949.15	0.886
1958.4	0.885
1967.65	0.885
1976.89	0.885
1986.14	0.886
1995.38	0.887
2004.63	0.887
2013.87	0.887
2023.12	0.887
2032.36	0.887
2041.61	0.889
2050.85	0.891
2060.1	0.893
2069.34	0.8984
2078.59	0.8966
2087.83	0.894
2097.08	0.894
2106.32	0.896
2115.57	0.896
2124.81	0.8954
2134.06	0.896
2143.3	0.897
2152.55	0.8967
2161.79	0.896
2171.04	0.896
2180.28	0.894
2189.53	0.896
2198.77	0.896
2208.02	0.896
2217.26	0.894
2226.51	0.893
2235.75	0.892
2245	0.8907
2254.24	0.8889
2263.49	0.887
2272.73	0.8829
2281.98	0.881
2291.22	0.88
2300.47	0.881
2309.71	0.882
2318.96	0.883
2328.2	0.886
2337.45	0.886
2346.69	0.886
2355.94	0.887
2365.18	0.887
2374.43	0.887
2383.67	0.888
2392.92	0.888
2402.16	0.888
2411.41	0.888
2420.65	0.8861
2429.9	0.886
2439.14	0.886
2448.39	0.885
2457.63	0.8834
2466.88	0.882
2476.12	0.8784
2485.37	0.876
2494.61	0.876
2503.86	0.8763
2513.1	0.876
2522.35	0.877
2531.59	0.878
2540.84	0.877
2550.08	0.876
2559.33	0.874
2568.57	0.874
2577.82	0.8727
2587.06	0.872
2596.31	0.8704
2605.55	0.867
2614.8	0.8644
2624.04	0.859
2633.29	0.855
2642.53	0.8449
2651.78	0.8375
2661.02	0.821
2670.27	0.802
2679.51	0.7766
2688.76	0.7383
2698	0.6986
2707.25	0.6403
2716.49	0.6202
2725.74	0.6166
2734.98	0.5922
2744.23	0.5485
2753.47	0.4962
2762.72	0.3977
2771.96	0.2556
2781.21	0.1074
2790.45	0.1472
2799.7	0.2959
2808.94	0.3624
2818.19	0.3803
2827.43	0.3647
2836.68	0.3168
2845.92	0.2585
2855.17	0.2519
2864.41	0.3064
2873.66	0.3769
2882.9	0.4473
2892.15	0.5036
2901.39	0.5534
2910.64	0.5755
2919.88	0.5902
2929.13	0.6173
2938.37	0.6493
2947.62	0.656
2956.86	0.6509
2966.11	0.6378
2975.35	0.6136
2984.6	0.5769
2993.84	0.5721
3003.09	0.632
3012.33	0.7088
3021.58	0.7586
3030.82	0.776
3040.07	0.7929
3049.31	0.8008
3058.56	0.8109
3067.8	0.8199
3077.05	0.8229
3086.29	0.828
3095.54	0.831
3104.78	0.832
3114.03	0.832
3123.27	0.832
3132.52	0.831
3141.76	0.83
3151.01	0.828
3160.25	0.8262
3169.5	0.826
3178.74	0.828
3187.99	0.831
3197.23	0.832
3206.48	0.8337
3215.72	0.834
3224.97	0.836
3234.21	0.836
3243.46	0.836
3252.7	0.836
3261.95	0.8334
3271.19	0.8314
3280.44	0.8288
3289.68	0.8214
3298.93	0.82
3308.17	0.817
3317.42	0.817
3326.66	0.82
3335.91	0.8225
3345.15	0.8265
3354.4	0.828
3363.64	0.83
3372.89	0.83
3382.13	0.8292
3391.38	0.828
3400.62	0.826
3409.87	0.8226
3419.11	0.8196
3428.36	0.8116
3437.6	0.8003
3446.85	0.7503
3456.09	0.6787
3465.34	0.7438
3474.58	0.788
3483.83	0.8054
3493.07	0.8163
3502.32	0.8285
3511.56	0.8347
3520.81	0.8412
3530.05	0.85
3539.3	0.8532
3548.54	0.8564
3557.79	0.859
3567.03	0.86
3576.28	0.859
3585.52	0.85
3594.77	0.822
3604.01	0.837
3613.26	0.8205
3622.5	0.8002
3631.75	0.8502
3640.99	0.8701
3650.24	0.8781
3659.48	0.885
3668.73	0.886
3677.97	0.887
3687.22	0.887
3696.46	0.888
3705.71	0.889
3714.95	0.8889
3724.2	0.891
3733.44	0.888
3742.69	0.8871
3751.93	0.888
3761.18	0.889
3770.42	0.889
3779.67	0.889
3788.91	0.888
3798.16	0.888
3807.4	0.889
3816.65	0.889
3825.89	0.889
3835.14	0.889
3844.38	0.889
3853.63	0.889
3862.87	0.887
3872.12	0.887
3881.36	0.887
3890.61	0.886
3899.85	0.886
3909.1	0.886
3918.34	0.886
3927.59	0.886
3936.83	0.885
3946.08	0.885
3955.32	0.8839
3964.57	0.883
3973.81	0.883
3983.06	0.883
3992.3	0.882
4001.55	0.882
