Infrared Spectrum: PROPANE, 2-IODO-
Formula: C3 H7 I
CAS: 75-30-9
State: SOLUTION (10% IN CCl4 FOR 3800-1333, AND 10% IN CS2 FOR 1333-400 CM^-^1)
Class: COBLENTZ III
Instrument: BECKMAN IR-9 (GRATING)
Instrument parameters: ORDER CHANGES AT 670, 1200, 2000 CM^-^1
Sampling: TRANSMISSION
Path length: 0.011, 0.011 CM
Resolution: 4
Origin: DOW CHEMICAL COMPANY
1/CM	TRANSMITTANCE
405.22	0.032
413.92	0.183
422.621	0.634
431.321	0.757
440.022	0.831
448.722	0.881
457.422	0.919
466.123	0.953
474.823	0.963
483.523	0.881
492.224	0.599
500.924	0.938
509.625	1.008
518.325	1.025
527.025	1.036
535.726	1.047
544.426	1.051
553.127	1.053
561.827	1.055
570.527	1.054
579.228	1.053
587.928	1.043
596.628	1.038
605.329	1.036
614.029	1.029
622.73	1.024
631.43	1.021
640.13	1
648.831	0.976
657.531	0.967
666.232	0.998
674.932	1.058
683.632	1.062
692.333	1.061
701.033	1.055
709.733	1.054
718.434	1.051
727.134	1.054
735.835	1.049
744.535	1.043
753.235	1.034
761.936	1.024
770.636	1.027
779.337	1.023
788.037	1.016
796.737	1.021
805.438	1.023
814.138	1.021
822.838	1.019
831.539	1.008
840.239	0.971
848.94	0.876
857.64	0.829
866.34	0.803
875.041	0.587
883.741	0.899
892.442	0.97
901.142	1
909.842	1.008
918.543	1
927.243	0.946
935.943	0.983
944.644	0.991
953.344	1.001
962.045	1.009
970.745	1.012
979.445	1.012
988.146	1.006
996.846	1
1005.55	0.986
1014.25	0.76
1022.95	0.923
1031.65	0.987
1040.35	0.994
1049.05	0.997
1057.75	0.995
1066.45	0.997
1075.15	0.995
1083.85	0.99
1092.55	0.983
1101.25	0.975
1109.95	0.949
1118.65	0.881
1127.35	0.805
1136.05	0.505
1144.75	0.055
1153.45	0.659
1162.15	0.835
1170.85	0.878
1179.55	0.855
1188.25	0.681
1196.96	0.249
1205.66	0.589
1214.36	0.881
1223.06	0.955
1231.76	0.982
1240.46	0.991
1249.16	0.998
1257.86	1.001
1266.56	0.998
1275.26	0.998
1283.96	1.001
1292.66	0.998
1301.36	0.993
1310.06	0.979
1318.76	0.974
1327.46	0.976
1336.16	0.976
1344.86	0.971
1353.56	0.959
1362.26	0.903
1370.96	0.4861
1379.66	0.797
1388.36	0.818
1397.06	0.914
1405.76	0.914
1414.46	0.88
1423.17	0.899
1431.87	0.891
1440.57	0.816
1449.27	0.543
1457.97	0.6149
1466.67	0.802
1475.37	0.896
1484.07	0.903
1492.77	0.884
1501.47	0.844
1510.17	0.792
1518.87	0.735
1527.57	0.7
1536.27	0.615
1544.97	0.535
1553.67	0.505
1562.37	0.574
1571.07	0.66
1579.77	0.685
1588.47	0.717
1597.17	0.81
1605.87	0.88
1614.57	0.926
1623.27	0.949
1631.97	0.968
1640.67	0.989
1649.38	0.993
1658.08	0.998
1666.78	0.998
1675.48	0.998
1684.18	0.995
1692.88	0.998
1701.58	1
1710.28	1.001
1718.98	1
1727.68	1.001
1736.38	1.002
1745.08	1
1753.78	1.001
1762.48	1.008
1771.18	1.008
1779.88	1.005
1788.58	1.002
1797.28	1.004
1805.98	1.001
1814.68	0.998
1823.38	0.998
1832.08	0.997
1840.78	1
1849.48	1
1858.18	0.995
1866.88	0.995
1875.59	1.001
1884.29	0.995
1892.99	0.991
1901.69	1.001
1910.39	1.001
1919.09	1.002
1927.79	1.005
1936.49	1.002
1945.19	1.004
1953.89	1.001
1962.59	1.002
1971.29	1.004
1979.99	1
1988.69	1
1997.39	0.991
2006.09	1.0015
2014.79	1.0005
2023.49	0.9994
2032.19	1.002
2040.89	1.005
2049.59	1.006
2058.29	1.006
2066.99	1.002
2075.69	1.0069
2084.39	1.01
2093.09	1.012
2101.8	1.012
2110.5	1.01
2119.2	1.009
2127.9	1.0096
2136.6	1.0072
2145.3	1.006
2154	1.0033
2162.7	0.9989
2171.4	1.001
2180.1	1.0044
2188.8	1.008
2197.5	1.006
2206.2	1.0017
2214.9	0.9963
2223.6	0.9956
2232.3	0.9977
2241	0.9924
2249.7	0.9896
2258.4	0.9907
2267.1	0.986
2275.8	0.9867
2284.5	0.9845
2293.2	0.979
2301.9	0.9783
2310.6	0.9862
2319.3	0.9875
2328.01	0.9902
2336.71	0.997
2345.41	0.997
2354.11	1
2362.81	1
2371.51	1.0036
2380.21	0.9974
2388.91	0.9948
2397.61	0.997
2406.31	0.9972
2415.01	1.002
2423.71	1.002
2432.41	1.0009
2441.11	1.0023
2449.81	1.005
2458.51	1.0049
2467.21	1.0019
2475.91	0.9982
2484.61	0.998
2493.31	0.997
2502.01	0.995
2510.71	1.0001
2519.41	1.001
2528.11	1
2536.81	1.002
2545.51	1.004
2554.22	1.004
2562.92	1.001
2571.62	1.001
2580.32	1.001
2589.02	0.998
2597.72	0.9981
2606.42	1
2615.12	1.001
2623.82	1
2632.52	0.997
2641.22	1.0019
2649.92	1
2658.62	0.998
2667.32	1
2676.02	1.001
2684.72	1.002
2693.42	1.001
2702.12	1.001
2710.82	1
2719.52	0.9971
2728.22	0.9386
2736.92	0.9798
2745.62	0.9949
2754.32	0.9943
2763.02	0.9786
2771.72	0.9928
2780.43	0.997
2789.13	0.998
2797.83	0.995
2806.53	0.99
2815.23	0.9835
2823.93	0.9742
2832.63	0.9703
2841.33	0.9542
2850.03	0.8993
2858.73	0.7651
2867.43	0.7288
2876.13	0.7426
2884.83	0.7528
2893.53	0.797
2902.23	0.7603
2910.93	0.6082
2919.63	0.5377
2928.33	0.7153
2937.03	0.8785
2945.73	0.8511
2954.43	0.7105
2963.13	0.6507
2971.83	0.5975
2980.53	0.5624
2989.23	0.4644
2997.93	0.7357
3006.64	0.8821
3015.34	0.9475
3024.04	0.9684
3032.74	0.9843
3041.44	0.9897
3050.14	0.995
3058.84	0.997
3067.54	1.0007
3076.24	0.998
3084.94	0.998
3093.64	1.001
3102.34	1
3111.04	1
3119.74	1.001
3128.44	1
3137.14	0.9988
3145.84	0.997
3154.54	0.997
3163.24	0.9959
3171.94	0.995
3180.64	0.994
3189.34	0.9905
3198.04	0.991
3206.74	0.9879
3215.44	0.989
3224.14	0.99
3232.85	0.99
3241.55	0.991
3250.25	0.994
3258.95	0.995
3267.65	0.997
3276.35	0.998
3285.05	1
3293.75	1.0005
3302.45	1.0006
3311.15	0.998
3319.85	0.998
3328.55	0.998
3337.25	0.998
3345.95	0.998
3354.65	0.9988
3363.35	1.001
3372.05	0.9976
3380.75	0.995
3389.45	0.993
3398.15	0.998
3406.85	0.998
3415.55	1
3424.25	1
3432.95	1.001
3441.65	1
3450.35	0.998
3459.06	0.998
3467.76	0.9987
3476.46	1.001
3485.16	0.997
3493.86	1.001
3502.56	1.0031
3511.26	0.998
3519.96	0.9989
3528.66	1.002
3537.36	1.002
3546.06	1
3554.76	1.002
3563.46	1.002
3572.16	1.0042
3580.86	1.001
3589.56	0.9956
3598.26	1.004
3606.96	1.0064
3615.66	1.006
3624.36	1.004
3633.06	1.0024
3641.76	1.0064
3650.46	1.008
3659.16	1.004
3667.86	1.004
3676.56	1.004
3685.27	1.0037
3693.97	1.004
3702.67	1.005
3711.37	1.005
3720.07	1.005
3728.77	1.009
3737.47	1.006
3746.17	1.005
3754.87	1.006
3763.57	1.0059
3772.27	1.005
3780.97	1.005
3789.67	1.005
