Infrared Spectrum: Propane, 2-iodo-
Formula: C3 H7 I
CAS: 75-30-9
State: GAS (40 mmHg, N2 ADDED, TOTAL PRESSURE 600 mmHg)
Class: COBLENTZ
Instrument: DOW KBr FOREPRISM-GRATING
Instrument parameters: GRATING CHANGED AT 5.0, 7.5, 15.0 MICRON
Sampling: TRANSMISSION
Path length: 5 CM
Resolution: 2
Origin: DOW CHEMICAL COMPANY
1/CM	TRANSMITTANCE
457	0.849
466	0.8455
475	0.8313
484	0.7776
493	0.6478
502	0.6054
511	0.616
520	0.8189
529	0.8303
538	0.8349
547	0.8405
556	0.8454
565	0.8489
574	0.8526
583	0.8565
592	0.8587
601	0.8609
610	0.863
619	0.864
628	0.8651
637	0.8665
646	0.8676
655	0.8684
664	0.8698
673	0.8698
682	0.8698
691	0.8699
700	0.8697
709	0.8672
718	0.8687
727	0.8773
736	0.87
745	0.8691
754	0.8672
763	0.8617
772	0.8557
781	0.8599
790	0.8612
799	0.8557
808	0.8667
817	0.8674
826	0.8662
835	0.8626
844	0.8712
853	0.8687
862	0.8442
871	0.7501
880	0.7089
889	0.7201
898	0.856
907	0.8643
916	0.8608
925	0.8523
934	0.8482
943	0.8506
952	0.8659
961	0.8707
970	0.875
979	0.8773
988	0.8762
997	0.8731
1006	0.8575
1015	0.7566
1024	0.7433
1033	0.7656
1042	0.8753
1051	0.8772
1060	0.8742
1069	0.8736
1078	0.8753
1087	0.8786
1096	0.8752
1105	0.8598
1114	0.8337
1123	0.7929
1132	0.7237
1141	0.245
1150	0.1927
1159	0.157
1168	0.6343
1177	0.7815
1186	0.7503
1195	0.4021
1204	0.2079
1213	0.1719
1222	0.5392
1231	0.8535
1240	0.8686
1249	0.8654
1258	0.861
1267	0.8579
1276	0.8613
1285	0.8647
1294	0.8628
1303	0.8574
1312	0.8509
1321	0.8455
1330	0.844
1339	0.8401
1348	0.8183
1357	0.7463
1366	0.5855
1375	0.5039
1384	0.4208
1393	0.4073
1402	0.6525
1411	0.766
1420	0.7896
1429	0.7887
1438	0.7164
1447	0.616
1456	0.5685
1465	0.56
1474	0.6325
1483	0.6923
1492	0.7832
1501	0.8472
1510	0.8496
1519	0.8412
1528	0.8293
1537	0.8414
1546	0.8348
1555	0.8636
1564	0.862
1573	0.862
1582	0.8605
1591	0.8593
1600	0.858
1609	0.8561
1618	0.8545
1627	0.8534
1636	0.8532
1645	0.8529
1654	0.8526
1663	0.852
1672	0.8508
1681	0.8493
1690	0.8479
1699	0.8465
1708	0.8454
1717	0.8456
1726	0.8464
1735	0.8477
1744	0.8494
1753	0.8512
1762	0.8537
1771	0.8554
1780	0.8565
1789	0.8573
1798	0.8582
1807	0.8587
1816	0.8589
1825	0.8588
1834	0.8581
1843	0.8575
1852	0.8572
1861	0.8581
1870	0.8572
1879	0.8548
1888	0.8512
1897	0.8511
1906	0.8542
1915	0.8599
1924	0.863
1933	0.8639
1942	0.8642
1951	0.8642
1960	0.8639
1969	0.8638
1978	0.8646
1987	0.8654
1996	0.8663
2005	0.8663
2014	0.8646
2023	0.8634
2032	0.8644
2041	0.8651
2050	0.8662
2059	0.8673
2068	0.8672
2077	0.867
2086	0.8668
2095	0.8666
2104	0.8665
2113	0.8663
2122	0.8656
2131	0.8648
2140	0.8641
2149	0.8633
2158	0.8623
2167	0.8611
2176	0.8614
2185	0.8632
2194	0.8657
2203	0.8661
2212	0.8629
2221	0.8587
2230	0.8568
2239	0.8571
2248	0.858
2257	0.8576
2266	0.8587
2275	0.8625
2284	0.8669
2293	0.8685
2302	0.8684
2311	0.8691
2320	0.8702
2329	0.8716
2338	0.8744
2347	0.8775
2356	0.8778
2365	0.8769
2374	0.8739
2383	0.8696
2392	0.8669
2401	0.8675
2410	0.8685
2419	0.8696
2428	0.8712
2437	0.8721
2446	0.8722
2455	0.8722
2464	0.8706
2473	0.8676
2482	0.8657
2491	0.8658
2500	0.8666
2509	0.8677
2518	0.869
2527	0.8702
2536	0.8716
2545	0.8732
2554	0.8748
2563	0.8751
2572	0.8737
2581	0.8719
2590	0.8707
2599	0.8694
2608	0.8684
2617	0.8672
2626	0.8665
2635	0.8658
2644	0.8661
2653	0.8672
2662	0.869
2671	0.8699
2680	0.8704
2689	0.8702
2698	0.8692
2707	0.8669
2716	0.8616
2725	0.8437
2734	0.8277
2743	0.8261
2752	0.8478
2761	0.8531
2770	0.8514
2779	0.8624
2788	0.8652
2797	0.8624
2806	0.8552
2815	0.8477
2824	0.8388
2833	0.8278
2842	0.815
2851	0.771
2860	0.6501
2869	0.5081
2878	0.4498
2887	0.4549
2896	0.4708
2905	0.4828
2914	0.4237
2923	0.2788
2932	0.2999
2941	0.4614
2950	0.6754
2959	0.6293
2968	0.3455
2977	0.3406
2986	0.2493
2995	0.2145
3004	0.4427
3013	0.6648
3022	0.8483
3031	0.8647
3040	0.8694
3049	0.8712
3058	0.872
3067	0.8718
3076	0.8715
3085	0.871
3094	0.8706
3103	0.8691
3112	0.8677
3121	0.8663
3130	0.865
3139	0.8637
3148	0.8625
3157	0.8612
3166	0.8598
3175	0.8583
3184	0.8566
3193	0.8537
3202	0.8513
3211	0.8506
3220	0.8531
3229	0.8569
3238	0.8613
3247	0.8656
3256	0.8698
3265	0.8735
3274	0.8767
3283	0.8783
3292	0.8792
3301	0.8801
3310	0.8811
3319	0.8822
3328	0.882
3337	0.8803
3346	0.8789
3355	0.8774
3364	0.876
3373	0.8752
3382	0.8745
3391	0.8745
3400	0.8759
3409	0.8769
3418	0.8775
3427	0.8779
3436	0.8773
3445	0.8766
3454	0.8763
3463	0.8767
3472	0.8782
3481	0.8794
3490	0.8807
3499	0.881
3508	0.8813
3517	0.8815
3526	0.8817
3535	0.8817
3544	0.8818
3553	0.8818
3562	0.8817
3571	0.8814
3580	0.8811
3589	0.882
3598	0.8826
3607	0.8824
3616	0.8822
3625	0.882
3634	0.8819
3643	0.8818
3652	0.8817
3661	0.8815
3670	0.8811
3679	0.8813
3688	0.8822
3697	0.8839
3706	0.8858
3715	0.8869
3724	0.8872
3733	0.8875
3742	0.8877
3751	0.8877
3760	0.8877
3769	0.8877
3778	0.8877
3787	0.8873
3796	0.887
