Infrared Spectrum: Propane, 2-iodo-
Formula: C 3 H 7 I
CAS: 75-30-9
State: gas
Origin: Sadtler Research Labs Under US-EPA Contract
1/CM	ABSORBANCE
450	0.0126636
462	0.0250488
474	0.0446008
486	0.105275
498	0.110145
510	0.0517675
522	0.0332592
534	0.0172558
546	0.013081
558	0.00793212
570	0.0171167
582	0.00981078
594	0.0151684
606	0.00786254
618	0.00821044
630	0.0141943
642	0.00396606
654	0.0196216
666	0.0119678
678	0.00981078
690	0.00542724
702	0.0048706
714	0.00807128
726	0.0153076
738	0.0107153
750	0.00257446
762	0.0118286
774	0.00716674
786	0.0171863
798	0.0150293
810	0.0172558
822	0.0167688
834	0.0155163
846	0.0194128
858	0.0389648
870	0.0791125
882	0.0665881
894	0.0308935
906	0.0275537
918	0.0297802
930	0.0379211
942	0.0441833
954	0.0464794
966	0.0425134
978	0.0343725
990	0.0218481
1002	0.0530895
1014	0.122809
1026	0.115503
1038	0.0484973
1050	0.0276233
1062	0.0333984
1074	0.0393127
1086	0.0464794
1098	0.0699975
1110	0.130323
1122	0.202965
1134	0.436545
1146	0.625107
1158	0.586211
1170	0.209436
1182	0.16894
1194	0.422838
1206	0.54669
1218	0.378306
1230	0.0640136
1242	0.0350683
1254	0.0323547
1266	0.0311023
1278	0.0263708
1290	0.0202478
1302	0.0231006
1314	0.0375036
1326	0.0706933
1338	0.0655444
1350	0.0613696
1362	0.132898
1374	0.205539
1386	0.257516
1398	0.144239
1410	0.0734069
1422	0.0542028
1434	0.0875316
1446	0.137908
1458	0.20547
1470	0.162956
1482	0.0933068
1494	0.0431396
1506	0.0279712
1518	0.022196
1530	0.0123852
1542	0.0167688
1554	0.0105066
1566	0.010437
1578	0.0086975
1590	0.0066101
1602	0.00814086
1614	0.0086975
1626	0.0102283
1638	0.0102978
1650	0.0153772
1662	0.0111328
1674	0.0175342
1686	0.014751
1698	0.015238
1710	0.0114111
1722	0.0116894
1734	0.0198303
1746	0.0149597
1758	0.0122461
1770	0.00918456
1782	0.00946288
1794	0.00953246
1806	0.00994994
1818	0.00960204
1830	0.00737548
1842	0.00772338
1854	0.00480102
1866	0.00828002
1878	0.00612304
1890	0.0113415
1902	0.00855834
1914	0.00855834
1926	0.00709716
1938	0.00340942
1950	0.00403564
1962	0.00340942
1974	0.0048706
1986	0.00396606
1998	0.00507934
2010	0.00271362
2022	0.00528808
2034	0.00459228
2046	0.00424438
2058	0.00570556
2070	0.0027832
2082	0.003479
2094	0.00320068
2106	0.00438354
2118	0.00306152
2130	0.0038269
2142	0.00292236
2154	0.00333984
2166	0.00674926
2178	0.00466186
2190	0.00514892
2202	0.0038269
2214	0.00758422
2226	0.00654052
2238	0.00737548
2250	0.006958
2262	0.00744506
2274	0.00723632
2286	0.0038269
2298	0.00528808
2310	0.00327026
2322	0.00396606
2334	0.0010437
2346	0.0006958
2358	0.00055664
2370	0.00055664
2382	0.00361816
2394	0.00250488
2406	0.00494018
2418	0.0027832
2430	0.00424438
2442	0.00389648
2454	0.00368774
2466	0.00264404
2478	0.00570556
2490	0.0076538
2502	0.00723632
2514	0.0076538
2526	0.00250488
2538	0.00333984
2550	0.00236572
2562	0.00340942
2574	0.00438354
2586	0.0045227
2598	0.0059143
2610	0.00535766
2622	0.0107849
2634	0.0097412
2646	0.0100195
2658	0.0080017
2670	0.00744506
2682	0.00744506
2694	0.00758422
2706	0.00737548
2718	0.0102283
2730	0.025188
2742	0.0233789
2754	0.0227527
2766	0.0162121
2778	0.0150293
2790	0.014751
2802	0.0172558
2814	0.0242138
2826	0.028667
2838	0.0390344
2850	0.0613696
2862	0.152937
2874	0.254872
2886	0.317981
2898	0.300029
2910	0.311718
2922	0.421098
2934	0.427012
2946	0.280477
2958	0.244017
2970	0.497984
2982	0.670682
2994	0.514753
3006	0.279294
3018	0.116407
3030	0.0352075
3042	0.0145422
3054	0.0121765
3066	0.00793212
3078	0.0108545
3090	0.00737548
3102	0.0116199
3114	0.0120373
3126	0.00772338
3138	0.0102978
3150	0.00751464
3162	0.011272
3174	0.0138464
3186	0.0178125
3198	0.01656
3210	0.0180908
3222	0.0146118
3234	0.012594
3246	0.012594
3258	0.00605346
3270	0.0073059
3282	0.00320068
3294	0.00431396
3306	0.00111328
3318	0.00389648
3330	0.00507934
3342	0.00431396
3354	0.00647094
3366	0.00375732
3378	0.00681884
3390	0.00612304
3402	0.0076538
3414	0.0048706
3426	0.00633178
3438	0.00563598
3450	0.00445312
3462	0.00848876
3474	0.0010437
3486	0.00640136
3498	0.0045227
3510	0.00494018
3522	0.00375732
3534	0.00361816
3546	0.0045227
3558	0.00459228
3570	0.0109241
3582	0.00257446
3594	0.00667968
3606	0.00306152
3618	0.0106457
3630	0.0145422
3642	0.0135681
3654	0.0134985
3666	0.0108545
3678	0.0121765
3690	0.00737548
3702	0.00981078
3714	0.00528808
3726	0.006958
3738	0.00932372
3750	0.00953246
3762	0.00751464
3774	0.00500976
3786	0.00709716
3798	0.00744506
3810	0.0126636
3822	0.0093933
3834	0.0105066
3846	0.00946288
3858	0.00841918
3870	0.0155163
3882	0.0115503
3894	0.0097412
3906	0.00647094
3918	0.0109241
3930	0.00821044
3942	0.0110632
3954	0
3966	0.00055664
