Infrared Spectrum: Propane, 2-iodo-,
Formula: C3 H7 I
CAS: 75-30-9
State: LIQUID
Class: COBLENTZ III
Instrument: BAIRD (GRATING)
Instrument parameters: NaCl PRISM
Path length: 0.005 CM
Resolution: 2
Origin: WYANDOTTE CHEMICALS CORP.
1/CM	TRANSMITTANCE
625	0.6854
634	0.7075
643	0.7231
652	0.7351
661	0.7423
670	0.7561
679	0.7655
688	0.7852
697	0.795
706	0.7958
715	0.7945
724	0.7978
733	0.7897
742	0.7808
751	0.7706
760	0.763
769	0.7662
778	0.7549
787	0.7409
796	0.7684
805	0.7764
814	0.775
823	0.7839
832	0.7806
841	0.7669
850	0.7299
859	0.5895
868	0.1943
877	0.1549
886	0.5564
895	0.6974
904	0.733
913	0.7052
922	0.5321
931	0.4751
940	0.6036
949	0.6758
958	0.7416
967	0.7559
976	0.7618
985	0.7519
994	0.7276
1003	0.6503
1012	0.3597
1021	0.0787
1030	0.5031
1039	0.6764
1048	0.7127
1057	0.7022
1066	0.7157
1075	0.7308
1084	0.7209
1093	0.6957
1102	0.6403
1111	0.499
1120	0.2456
1129	0.1304
1138	0.0473
1147	0.0476
1156	0.0559
1165	0.1231
1174	0.2264
1183	0.1455
1192	0.0598
1201	0.0402
1210	0.0467
1219	0.1903
1228	0.4502
1237	0.585
1246	0.6584
1255	0.6978
1264	0.7088
1273	0.7096
1282	0.7586
1291	0.7647
1300	0.7633
1309	0.7508
1318	0.7081
1327	0.6962
1336	0.6997
1345	0.6599
1354	0.5465
1363	0.4059
1372	0.0442
1381	0.0694
1390	0.0401
1399	0.2726
1408	0.3386
1417	0.2532
1426	0.2661
1435	0.2568
1444	0.1333
1453	0.0383
1462	0.0456
1471	0.0294
1480	0.2525
1489	0.4278
1498	0.5419
1507	0.626
1516	0.6418
1525	0.6711
1534	0.741
1543	0.7723
1552	0.7829
1561	0.8068
1570	0.8157
1579	0.8179
1588	0.8177
1597	0.8173
1606	0.8117
1615	0.7946
1624	0.7929
1633	0.7982
1642	0.7942
1651	0.7903
1660	0.7954
1669	0.7888
1678	0.7751
1687	0.7638
1696	0.7542
1705	0.7539
1714	0.752
1723	0.7295
1732	0.7557
1741	0.7701
1750	0.7875
1759	0.83
1768	0.8395
1777	0.8325
1786	0.8399
1795	0.8523
1804	0.8396
1813	0.8363
1822	0.8536
1831	0.8513
1840	0.8419
1849	0.8312
1858	0.819
1867	0.7947
1876	0.747
1885	0.772
1894	0.8367
1903	0.8572
1912	0.8662
1921	0.8668
1930	0.8627
1939	0.8685
1948	0.8716
1957	0.8685
1966	0.861
1975	0.8493
1984	0.8357
1993	0.8204
2002	0.8293
2011	0.8645
2020	0.8669
2029	0.8677
2038	0.8682
2047	0.865
2056	0.8587
2065	0.8619
2074	0.8721
2083	0.8789
2092	0.8824
2101	0.8814
2110	0.8747
2119	0.8445
2128	0.8092
2137	0.8377
2146	0.8696
2155	0.8665
2164	0.8457
2173	0.802
2182	0.7836
2191	0.8064
2200	0.7719
2209	0.7521
2218	0.7762
2227	0.8035
2236	0.8245
2245	0.8305
2254	0.8187
2263	0.8115
2272	0.8131
2281	0.8242
2290	0.8405
2299	0.8509
2308	0.8443
2317	0.8362
2326	0.828
2335	0.818
2344	0.8088
2353	0.8029
2362	0.8027
2371	0.8097
2380	0.8379
2389	0.8521
2398	0.8535
2407	0.8535
2416	0.8572
2425	0.8633
2434	0.8596
2443	0.8495
2452	0.8364
2461	0.8237
2470	0.8112
2479	0.7981
2488	0.8005
2497	0.8147
2506	0.8426
2515	0.8625
2524	0.8656
2533	0.8641
2542	0.8597
2551	0.8522
2560	0.8433
2569	0.8314
2578	0.8234
2587	0.8366
2596	0.84
2605	0.8369
2614	0.8282
2623	0.8189
2632	0.8199
2641	0.8279
2650	0.8347
2659	0.8401
2668	0.8424
2677	0.8406
2686	0.8347
2695	0.8261
2704	0.7227
2713	0.6158
2722	0.637
2731	0.711
2740	0.7277
2749	0.7134
2758	0.7246
2767	0.7608
2776	0.7598
2785	0.7326
2794	0.6861
2803	0.6404
2812	0.6224
2821	0.564
2830	0.1908
2839	0.1013
2848	0.0779
2857	0.0645
2866	0.0613
2875	0.0616
2884	0.061
2893	0.0566
2902	0.0465
2911	0.0369
2920	0.0362
2929	0.0635
2938	0.0937
2947	0.0948
2956	0.0763
2965	0.0555
2974	0.0348
2983	0.0142
2992	0.0018
3001	0.0718
3010	0.2384
3019	0.4041
3028	0.5688
3037	0.6676
3046	0.7044
3055	0.7356
3064	0.7799
3073	0.7986
3082	0.8092
3091	0.8121
3100	0.8127
3109	0.8117
3118	0.8094
3127	0.8044
3136	0.7924
3145	0.7784
3154	0.7644
3163	0.7506
3172	0.7368
3181	0.7233
3190	0.7145
3199	0.714
3208	0.7163
3217	0.7297
3226	0.751
3235	0.7723
3244	0.7933
3253	0.8143
3262	0.8352
3271	0.856
3280	0.8766
3289	0.8899
3298	0.8909
3307	0.89
3316	0.8812
3325	0.8724
3334	0.8637
3343	0.8549
3352	0.849
3361	0.8543
3370	0.8635
3379	0.8725
3388	0.8799
3397	0.8818
3406	0.8826
3415	0.8829
3424	0.883
3433	0.8832
3442	0.8845
3451	0.8869
3460	0.8897
3469	0.8935
3478	0.898
3487	0.9024
3496	0.9055
3505	0.9084
3514	0.9113
3523	0.9138
3532	0.9152
3541	0.9167
3550	0.9183
3559	0.9198
3568	0.9213
3577	0.9225
3586	0.9236
3595	0.9247
3604	0.9258
3613	0.9266
3622	0.9274
3631	0.9281
3640	0.9282
3649	0.9281
3658	0.9279
3667	0.9276
3676	0.9273
3685	0.9269
3694	0.9265
3703	0.9262
3712	0.9257
3721	0.9277
3730	0.9316
3739	0.9343
3748	0.937
3757	0.9387
3766	0.9386
3775	0.9386
3784	0.9384
3793	0.9375
3802	0.9355
3811	0.9333
3820	0.9302
3829	0.9269
3838	0.9235
3847	0.92
3856	0.9183
3865	0.9172
3874	0.9163
3883	0.9157
3892	0.915
3901	0.9142
3910	0.9132
3919	0.9122
3928	0.9113
3937	0.9106
3946	0.9097
3955	0.9088
3964	0.9079
3973	0.9068
3982	0.9058
3991	0.9047
4000	0.9033
