Infrared Spectrum: 1-CHLORO-2-BUTENE
Formula: C4 H7 Cl
CAS: 591-97-9
Class: COBLENTZ
Instrument: Not specified, most likely a prism, grating, or hybrid spectrometer.
Sampling: TRANSMISSION
Path length: 0.0025 CM
Resolution: 4
Origin: W.T. BOLLETER
MICROMETERS	TRANSMITTANCE
14.511	0.01
14.5811	0.01
14.6511	0.01
14.7212	0.01
14.7913	0.01
14.8613	0.01
14.9314	0.01
15.0014	0.01
15.0715	0.01
15.1416	0.01
15.2116	0.01
15.2817	0.01
15.3518	0.01
15.4218	0.014
15.4919	0.028
15.5619	0.039
15.632	0.058
15.7021	0.089
15.7721	0.101
15.8422	0.135
15.9123	0.158
15.9823	0.18
16.0524	0.205
16.1224	0.225
16.1925	0.242
16.2626	0.267
16.3326	0.289
16.4027	0.316
16.4728	0.342
16.5428	0.364
16.6129	0.38
16.6829	0.387
16.753	0.398
16.8231	0.403
16.8931	0.419
16.9632	0.432
17.0333	0.444
17.1033	0.45
17.1734	0.446
17.2434	0.426
17.3135	0.4
17.3836	0.378
17.4536	0.376
17.5237	0.412
17.5938	0.448
17.6638	0.48
17.7339	0.505
17.8039	0.521
17.874	0.528
17.9441	0.539
18.0141	0.575
18.0842	0.605
18.1543	0.632
18.2243	0.667
18.2944	0.701
18.3644	0.726
18.4345	0.744
18.5046	0.76
18.5746	0.771
18.6447	0.775
18.7148	0.776
18.7848	0.773
18.8549	0.769
18.9249	0.76
18.995	0.757
19.0651	0.764
19.1351	0.775
19.2052	0.782
19.2753	0.785
19.3453	0.783
19.4154	0.778
19.4854	0.769
19.5555	0.758
19.6256	0.741
19.6956	0.73
19.7657	0.705
19.8358	0.676
19.9058	0.639
19.9759	0.589
20.0459	0.526
20.116	0.469
20.1861	0.394
20.2561	0.319
20.3262	0.267
20.3963	0.251
20.4663	0.283
20.5364	0.355
20.6064	0.425
20.6765	0.485
20.7466	0.551
20.8166	0.603
20.8867	0.625
20.9568	0.655
21.0268	0.678
21.0969	0.687
21.167	0.701
21.237	0.712
21.3071	0.717
21.3771	0.725
21.4472	0.726
21.5173	0.728
21.5873	0.723
21.6574	0.717
21.7275	0.71
21.7975	0.707
21.8676	0.701
21.9376	0.691
22.0077	0.682
22.0778	0.676
22.1478	0.675
22.2179	0.671
22.288	0.669
22.358	0.666
22.4281	0.655
22.4981	0.642
22.5682	0.619
22.6383	0.598
22.7083	0.575
22.7784	0.544
22.8485	0.521
22.9185	0.51
22.9886	0.514
23.0586	0.525
23.1287	0.548
23.1988	0.578
23.2688	0.6
23.3389	0.617
23.409	0.65
23.479	0.671
23.5491	0.691
23.6191	0.71
23.6892	0.732
23.7593	0.748
23.8293	0.771
23.8994	0.785
23.9695	0.8
24.0395	0.814
24.1096	0.821
24.1796	0.83
24.2497	0.833
24.3198	0.837
24.3898	0.842
24.4599	0.844
24.53	0.846
24.6	0.846
24.6701	0.848
24.7401	0.851
24.8102	0.855
24.8803	0.858
24.9503	0.86
25.0204	0.86
25.0905	0.86
25.1605	0.858
25.2306	0.851
25.3006	0.846
25.3707	0.833
25.4408	0.825
25.5108	0.819
25.5809	0.814
25.651	0.812
25.721	0.808
25.7911	0.801
25.8611	0.801
25.9312	0.803
26.0013	0.803
26.0713	0.801
26.1414	0.801
26.2115	0.801
26.2815	0.8
26.3516	0.794
26.4216	0.787
26.4917	0.78
26.5618	0.775
26.6318	0.769
26.7019	0.75
26.772	0.73
26.842	0.719
26.9121	0.71
26.9821	0.7
27.0522	0.689
27.1223	0.673
27.1923	0.653
27.2624	0.641
27.3325	0.633
27.4025	0.603
27.4726	0.58
27.5427	0.555
27.6127	0.512
27.6828	0.478
27.7528	0.439
27.8229	0.396
27.893	0.328
27.963	0.276
28.0331	0.246
28.1032	0.201
28.1732	0.146
28.2433	0.119
28.3133	0.098
28.3834	0.089
28.4535	0.091
28.5235	0.101
28.5936	0.135
28.6637	0.167
28.7337	0.21
28.8038	0.273
28.8738	0.328
28.9439	0.357
29.014	0.407
29.084	0.453
29.1541	0.489
29.2242	0.523
29.2942	0.557
29.3643	0.598
29.4343	0.608
29.5044	0.632
29.5745	0.65
29.6445	0.671
29.7146	0.68
29.7847	0.698
29.8547	0.712
29.9248	0.723
29.9948	0.732
30.0649	0.746
30.135	0.753
30.205	0.755
30.2751	0.758
30.3452	0.767
30.4152	0.769
30.4853	0.773
30.5553	0.773
30.6254	0.773
30.6955	0.773
30.7655	0.769
30.8356	0.769
30.9057	0.769
30.9757	0.766
31.0458	0.766
31.1158	0.764
31.1859	0.764
31.256	0.766
31.326	0.769
31.3961	0.766
31.4662	0.764
31.5362	0.766
31.6063	0.769
31.6763	0.771
31.7464	0.769
31.8165	0.769
31.8865	0.767
31.9566	0.769
32.0267	0.769
32.0967	0.766
32.1668	0.764
32.2368	0.762
32.3069	0.758
32.377	0.755
32.447	0.751
32.5171	0.75
32.5872	0.748
32.6572	0.748
32.7273	0.746
32.7973	0.748
32.8674	0.748
32.9375	0.746
33.0075	0.746
33.0776	0.742
33.1477	0.733
33.2177	0.725
33.2878	0.716
33.3579	0.708
33.4279	0.701
33.498	0.7
33.568	0.698
33.6381	0.694
33.7082	0.687
33.7782	0.673
33.8483	0.662
33.9184	0.651
33.9884	0.625
34.0585	0.608
34.1285	0.594
34.1986	0.582
34.2687	0.564
34.3387	0.542
34.4088	0.521
34.4789	0.501
34.5489	0.471
34.619	0.458
34.689	0.446
34.7591	0.401
34.8292	0.387
34.8992	0.367
34.9693	0.342
35.0394	0.308
35.1094	0.298
35.1795	0.278
35.2495	0.255
35.3196	0.246
35.3897	0.232
35.4597	0.214
35.5298	0.203
35.5999	0.2
35.6699	0.194
35.74	0.191
35.81	0.191
35.8801	0.183
35.9502	0.178
36.0202	0.175
36.0903	0.178
36.1604	0.18
36.2304	0.183
36.3005	0.183
36.3705	0.187
36.4406	0.189
36.5107	0.191
36.5807	0.191
36.6508	0.192
36.7209	0.196
36.7909	0.2
36.861	0.205
36.931	0.21
37.0011	0.216
37.0712	0.223
37.1412	0.226
37.2113	0.232
37.2814	0.237
37.3514	0.241
37.4215	0.244
37.4915	0.248
37.5616	0.25
37.6317	0.251
37.7017	0.255
37.7718	0.26
37.8419	0.26
37.9119	0.257
37.982	0.255
