Infrared Spectrum: 2,4-PENTADIENENITRILE
Formula: C5 H5 N
CAS: 1615-70-9
State: LIQUID
Boiling point: 41-44 C AT 2 mmHg
Class: COBLENTZ
Instrument: Not specified, most likely a prism, grating, or hybrid spectrometer.
Sampling: TRANSMISSION
Path length: FILM
Resolution: 4
Origin: TENNESSEE EASTMAN COMPANY, RESEARCH LABORATORIES
MICROMETERS	TRANSMITTANCE
2.02	0.952
2.06092	0.952
2.10184	0.943
2.14275	0.942
2.18367	0.94
2.22459	0.928
2.26551	0.92
2.30642	0.913
2.34734	0.911
2.38826	0.914
2.42918	0.933
2.4701	0.937
2.51101	0.938
2.55193	0.938
2.59285	0.94
2.63377	0.94
2.67468	0.931
2.7156	0.942
2.75652	0.94
2.79744	0.94
2.83836	0.94
2.87927	0.942
2.92019	0.942
2.96111	0.938
3.00203	0.933
3.04294	0.931
3.08386	0.926
3.12478	0.886
3.1657	0.836
3.20662	0.767
3.24753	0.488
3.28845	0.498
3.32937	0.6
3.37029	0.746
3.4112	0.777
3.45212	0.867
3.49304	0.889
3.53396	0.93
3.57488	0.935
3.61579	0.935
3.65671	0.943
3.69763	0.947
3.73855	0.95
3.77946	0.954
3.82038	0.954
3.8613	0.96
3.90222	0.955
3.94314	0.952
3.98405	0.943
4.02497	0.935
4.06589	0.945
4.10681	0.935
4.14772	0.943
4.18864	0.954
4.22956	0.954
4.27048	0.95
4.3114	0.942
4.35231	0.897
4.39323	0.918
4.43415	0.884
4.47507	0.573
4.51598	0.107
4.5569	0.761
4.59782	0.903
4.63874	0.952
4.67966	0.96
4.72057	0.962
4.76149	0.965
4.80241	0.965
4.84333	0.965
4.88424	0.965
4.92516	0.965
4.96608	0.96
5.007	0.948
5.04792	0.935
5.08883	0.879
5.12975	0.863
5.17067	0.88
5.21159	0.831
5.2525	0.755
5.29342	0.693
5.33434	0.663
5.37526	0.743
5.41618	0.835
5.45709	0.901
5.49801	0.926
5.53893	0.931
5.57985	0.88
5.62076	0.831
5.66168	0.836
5.7026	0.831
5.74352	0.775
5.78444	0.722
5.82535	0.727
5.86627	0.804
5.90719	0.702
5.94811	0.732
5.98902	0.801
6.02994	0.816
6.07086	0.778
6.11178	0.554
6.1527	0.289
6.19361	0.642
6.23453	0.731
6.27545	0.537
6.31637	0.389
6.35728	0.195
6.3982	0.474
6.43912	0.6
6.48004	0.709
6.52096	0.823
6.56187	0.841
6.60279	0.863
6.64371	0.874
6.68463	0.874
6.72554	0.87
6.76646	0.846
6.80738	0.794
6.8483	0.704
6.88922	0.607
6.93013	0.566
6.97105	0.408
7.01197	0.588
7.05289	0.721
7.0938	0.772
7.13472	0.794
7.17564	0.824
7.21656	0.831
7.25747	0.812
7.29839	0.777
7.33931	0.578
7.38023	0.413
7.42115	0.778
7.46206	0.816
7.50298	0.841
7.5439	0.853
7.58482	0.843
7.62573	0.804
7.66665	0.668
7.70757	0.389
7.74849	0.619
7.78941	0.738
7.83032	0.782
7.87124	0.795
7.91216	0.795
7.95308	0.765
7.99399	0.792
8.03491	0.794
8.07583	0.71
8.11675	0.506
8.15767	0.562
8.19858	0.748
8.2395	0.811
8.28042	0.836
8.32134	0.84
8.36225	0.852
8.40317	0.852
8.44409	0.84
8.48501	0.836
8.52593	0.826
8.56684	0.802
8.60776	0.782
8.64868	0.772
8.6896	0.761
8.73051	0.698
8.77143	0.731
8.81235	0.787
8.85327	0.804
8.89419	0.818
8.9351	0.819
8.97602	0.816
9.01694	0.816
9.05786	0.814
9.09877	0.814
9.13969	0.807
9.18061	0.807
9.22153	0.801
9.26245	0.794
9.30336	0.795
9.34428	0.794
9.3852	0.792
9.42612	0.787
9.46703	0.78
9.50795	0.775
9.54887	0.765
9.58979	0.76
9.63071	0.739
9.67162	0.709
9.71254	0.653
9.75346	0.573
9.79438	0.45
9.83529	0.258
9.87621	0.12
9.91713	0.045
9.95805	0.023
9.99897	0.032
10.0399	0.141
10.0808	0.299
10.1217	0.421
10.1626	0.474
10.2036	0.494
10.2445	0.471
10.2854	0.416
10.3263	0.329
10.3672	0.232
10.4081	0.147
10.4491	0.11
10.49	0.102
10.5309	0.076
10.5718	0.045
10.6127	0.02
10.6537	0.017
10.6946	0.015
10.7355	0.013
10.7764	0.022
10.8173	0.085
10.8582	0.198
10.8992	0.382
10.9401	0.527
10.981	0.615
11.0219	0.685
11.0628	0.712
11.1037	0.736
11.1447	0.744
11.1856	0.753
11.2265	0.746
11.2674	0.714
11.3083	0.663
11.3493	0.637
11.3902	0.687
11.4311	0.75
11.472	0.792
11.5129	0.806
11.5538	0.823
11.5948	0.831
11.6357	0.831
11.6766	0.831
11.7175	0.823
11.7584	0.806
11.7993	0.773
11.8403	0.726
11.8812	0.681
11.9221	0.656
11.963	0.654
12.0039	0.688
12.0449	0.729
12.0858	0.753
12.1267	0.767
12.1676	0.777
12.2085	0.777
12.2494	0.77
12.2904	0.751
12.3313	0.732
12.3722	0.71
12.4131	0.676
12.454	0.639
12.4949	0.581
12.5359	0.496
12.5768	0.397
12.6177	0.278
12.6586	0.2
12.6995	0.139
12.7405	0.098
12.7814	0.071
12.8223	0.062
12.8632	0.073
12.9041	0.137
12.945	0.239
12.986	0.345
13.0269	0.467
13.0678	0.54
13.1087	0.598
13.1496	0.636
13.1906	0.671
13.2315	0.695
13.2724	0.705
13.3133	0.719
13.3542	0.724
13.3951	0.727
13.4361	0.727
13.477	0.724
13.5179	0.71
13.5588	0.685
13.5997	0.67
13.6406	0.651
13.6816	0.637
13.7225	0.639
13.7634	0.651
13.8043	0.668
13.8452	0.688
13.8862	0.704
13.9271	0.712
13.968	0.714
14.0089	0.714
14.0498	0.71
14.0907	0.7
14.1317	0.681
14.1726	0.67
14.2135	0.661
14.2544	0.659
14.2953	0.656
14.3362	0.653
14.3772	0.649
14.4181	0.639
14.459	0.622
14.4999	0.605
14.5408	0.591
14.5818	0.562
14.6227	0.527
14.6636	0.491
14.7045	0.437
14.7454	0.384
14.7863	0.316
14.8273	0.251
14.8682	0.202
14.9091	0.183
14.95	0.181
14.9909	0.197
15.0319	0.21
15.0728	0.221
15.1137	0.265
15.1546	0.328
15.1955	0.382
15.2364	0.433
15.2774	0.472
15.3183	0.498
15.3592	0.517
15.4001	0.53
15.441	0.539
15.4819	0.545
15.5229	0.552
15.5638	0.557
15.6047	0.561
15.6456	0.564
15.6865	0.568
15.7275	0.569
15.7684	0.571
15.8093	0.574
15.8502	0.574
15.8911	0.578
15.932	0.579
15.973	0.581
