Infrared Spectrum: ETHYL ETHER
Formula: C4 H10 O
CAS: 60-29-7
State: GAS (50 mmHg, N2 ADDED, TOTAL PRESSURE 600 mmHg)
Class: COBLENTZ
Instrument: DOW KBr FOREPRISM-GRATING
Instrument parameters: GRATING CHANGED AT 5.0, 7.5, 15.0 MICRON
Sampling: TRANSMISSION
Path length: 5 CM
Resolution: 2
Origin: DOW CHEMICAL COMPANY
1/CM	TRANSMITTANCE
386.531	0.879
395.928	0.879
405.325	0.874
414.722	0.858
424.119	0.832
433.516	0.816
442.913	0.825
452.31	0.863
461.707	0.906
471.104	0.922
480.502	0.921
489.899	0.908
499.296	0.911
508.693	0.919
518.09	0.937
527.487	0.944
536.884	0.946
546.281	0.946
555.678	0.949
565.075	0.953
574.472	0.957
583.869	0.959
593.266	0.963
602.663	0.967
612.06	0.975
621.457	0.983
630.854	0.992
640.251	0.998
649.648	1.001
659.046	1.005
668.443	1.011
677.84	1.016
687.237	1.018
696.634	1.017
706.031	1.016
715.428	1.018
724.825	1.014
734.222	1.007
743.619	1.005
753.016	1.005
762.413	1.004
771.81	0.982
781.207	0.95
790.604	0.917
800.001	0.89
809.398	0.877
818.795	0.855
828.192	0.797
837.59	0.703
846.987	0.685
856.384	0.701
865.781	0.8
875.178	0.879
884.575	0.921
893.972	0.934
903.369	0.892
912.766	0.815
922.163	0.736
931.56	0.668
940.957	0.701
950.354	0.838
959.751	0.921
969.148	0.93
978.545	0.914
987.942	0.89
997.339	0.852
1006.74	0.758
1016.13	0.669
1025.53	0.569
1034.93	0.5
1044.32	0.494
1053.72	0.43
1063.12	0.305
1072.52	0.165
1081.91	0.184
1091.31	0.276
1100.71	0.33
1110.1	0.122
1119.5	0.01
1128.9	0.008
1138.3	0.008
1147.69	0.013
1157.09	0.029
1166.49	0.053
1175.88	0.139
1185.28	0.205
1194.68	0.275
1204.07	0.441
1213.47	0.669
1222.87	0.758
1232.27	0.777
1241.66	0.778
1251.06	0.767
1260.46	0.717
1269.85	0.668
1279.25	0.62
1288.65	0.564
1298.05	0.509
1307.44	0.56
1316.84	0.6621
1326.24	0.796
1335.63	0.6758
1345.03	0.174
1354.43	0.184
1363.82	0.132
1373.22	0.1549
1382.62	0.065
1392.02	0.056
1401.41	0.197
1410.81	0.474
1420.21	0.529
1429.6	0.473
1439	0.435
1448.4	0.422
1457.8	0.403
1467.19	0.487
1476.59	0.478
1485.99	0.563
1495.38	0.663
1504.78	0.727
1514.18	0.828
1523.57	0.861
1532.97	0.89
1542.37	0.877
1551.77	0.912
1561.16	0.8612
1570.56	0.9169
1579.96	0.925
1589.35	0.933
1598.75	0.934
1608.15	0.934
1617.54	0.9209
1626.94	0.931
1636.34	0.88
1645.74	0.922
1655.13	0.8641
1664.53	0.908
1673.93	0.918
1683.32	0.882
1692.72	0.917
1702.12	0.8761
1711.52	0.919
1720.91	0.918
1730.31	0.911
1739.71	0.886
1749.1	0.877
1758.5	0.886
1767.9	0.902
1777.29	0.912
1786.69	0.911
1796.09	0.914
1805.49	0.931
1814.88	0.935
1824.28	0.934
1833.68	0.938
1843.07	0.921
1852.47	0.93
1861.87	0.927
1871.27	0.922
1880.66	0.928
1890.06	0.922
1899.46	0.914
1908.85	0.906
1918.25	0.892
1927.65	0.882
1937.04	0.88
1946.44	0.886
1955.84	0.87
1965.24	0.818
1974.63	0.74
1984.03	0.754
1993.43	0.825
2002.82	0.8905
2012.22	0.9165
2021.62	0.928
2031.02	0.9345
2040.41	0.942
2049.81	0.9435
2059.21	0.944
2068.6	0.942
2078	0.94
2087.4	0.936
2096.79	0.934
2106.19	0.935
2115.59	0.942
2124.99	0.942
2134.38	0.9375
2143.78	0.933
2153.18	0.923
2162.57	0.9125
2171.97	0.909
2181.37	0.9115
2190.77	0.9145
2200.16	0.9145
2209.56	0.914
2218.96	0.914
2228.35	0.914
2237.75	0.914
2247.15	0.9175
2256.54	0.917
2265.94	0.9085
2275.34	0.9005
2284.74	0.8914
2294.13	0.8855
2303.53	0.8886
2312.93	0.9086
2322.32	0.9276
2331.72	0.936
2341.12	0.9435
2350.52	0.9505
2359.91	0.954
2369.31	0.954
2378.71	0.95
2388.1	0.944
2397.5	0.937
2406.9	0.932
2416.29	0.9245
2425.69	0.9175
2435.09	0.915
2444.49	0.92
2453.88	0.9296
2463.28	0.9386
2472.68	0.9481
2482.07	0.951
2491.47	0.951
2500.87	0.951
2510.26	0.95
2519.66	0.95
2529.06	0.95
2538.46	0.949
2547.85	0.9465
2557.25	0.9405
2566.65	0.9359
2576.04	0.917
2585.44	0.8893
2594.84	0.8689
2604.24	0.8378
2613.63	0.823
2623.03	0.8366
2632.43	0.8515
2641.82	0.8626
2651.22	0.8649
2660.62	0.8589
2670.01	0.8473
2679.41	0.8189
2688.81	0.7684
2698.21	0.75
2707.6	0.6943
2717	0.691
2726.4	0.6739
2735.79	0.6565
2745.19	0.6028
2754.59	0.5781
2763.99	0.5396
2773.38	0.4814
2782.78	0.4105
2792.18	0.3085
2801.57	0.2697
2810.97	0.267
2820.37	0.2027
2829.76	0.1631
2839.16	0.0869
2848.56	0.0123
2857.96	0.008
2867.35	0.01
2876.75	0.013
2886.15	0.017
2895.54	0.0373
2904.94	0.0844
2914.34	0.1272
2923.74	0.1572
2933.13	0.1042
2942.53	0.0502
2951.93	0.04
2961.32	0.0338
2970.72	0.0143
2980.12	0.011
2989.51	0.0136
2998.91	0.0206
3008.31	0.0531
3017.71	0.2268
3027.1	0.5357
3036.5	0.7579
3045.9	0.8479
3055.29	0.8666
3064.69	0.87
3074.09	0.871
3083.49	0.8747
3092.88	0.8837
3102.28	0.8999
3111.68	0.9197
3121.07	0.9438
3130.47	0.9551
3139.87	0.954
3149.26	0.95
3158.66	0.9449
3168.06	0.9404
3177.46	0.9344
3186.85	0.927
3196.25	0.9199
3205.65	0.9144
3215.04	0.9131
3224.44	0.9176
3233.84	0.9331
3243.24	0.9552
3252.63	0.9726
3262.03	0.979
3271.43	0.981
3280.82	0.982
3290.22	0.9814
3299.62	0.982
3309.01	0.983
3318.41	0.986
3327.81	0.988
3337.21	0.989
3346.6	0.988
3356	0.988
3365.4	0.988
3374.79	0.9868
3384.19	0.9838
3393.59	0.9814
3402.98	0.9784
3412.38	0.976
3421.78	0.975
3431.18	0.9786
3440.57	0.9842
3449.97	0.9902
3459.37	0.992
3468.76	0.992
3478.16	0.994
3487.56	0.995
3496.96	0.995
3506.35	0.995
3515.75	0.995
3525.15	0.995
3534.54	0.992
3543.94	0.9932
3553.34	0.994
3562.73	0.991
3572.13	0.9932
3581.53	0.9932
3590.93	0.9872
3600.32	0.991
3609.72	0.986
3619.12	0.9872
3628.51	0.9786
3637.91	0.995
3647.31	0.985
3656.71	0.9886
3666.1	0.959
3675.5	0.9594
3684.9	0.9552
3694.29	0.9626
3703.69	0.9682
3713.09	0.9742
3722.48	0.9772
3731.88	0.9702
3741.28	0.981
3750.68	0.985
3760.07	0.989
3769.47	0.995
3778.87	0.995
3788.26	0.9946
3797.66	0.998
