Infrared Spectrum: DIETHYL ETHER
Formula: C4 H10 O
CAS: 60-29-7
State: SOLUTION (10% IN CCl4 FOR 4000-1330 CM^-^1, 10% IN CS2 FOR 1330-600 CM^-^1)
Class: COBLENTZ III
Instrument: BECKMAN IR-7 (GRATING)
Instrument parameters: GRATING CHANGES AT 3000, 2200, 1150 CM^-^1
Sampling: TRANSMISSION
Path length: 0.011 CM, 0.010 CM
Resolution: 4
Origin: WESTERN REGIONAL RES. USDA
1/CM	TRANSMITTANCE
601.323	0.809
609.92	0.801
618.517	0.793
627.114	0.79
635.711	0.78
644.308	0.761
652.905	0.743
661.502	0.759
670.1	0.773
678.697	0.762
687.294	0.785
695.891	0.788
704.488	0.787
713.085	0.784
721.682	0.787
730.279	0.788
738.876	0.789
747.473	0.789
756.07	0.788
764.667	0.782
773.264	0.769
781.861	0.734
790.459	0.644
799.056	0.682
807.653	0.707
816.25	0.686
824.847	0.667
833.444	0.575
842.041	0.456
850.638	0.577
859.235	0.621
867.832	0.664
876.429	0.696
885.026	0.728
893.623	0.748
902.22	0.748
910.817	0.698
919.415	0.675
928.012	0.656
936.609	0.654
945.206	0.747
953.803	0.775
962.4	0.782
970.997	0.778
979.594	0.775
988.191	0.762
996.788	0.738
1005.39	0.69
1013.98	0.611
1022.58	0.479
1031.18	0.523
1039.77	0.424
1048.37	0.438
1056.97	0.495
1065.56	0.363
1074.16	0.192
1082.76	0.367
1091.36	0.361
1099.95	0.176
1108.55	0.016
1117.15	0
1125.74	0
1134.34	0.061
1142.94	0.096
1151.54	0.09
1160.13	0.163
1168.73	0.243
1177.33	0.292
1185.92	0.432
1194.52	0.589
1203.12	0.647
1211.71	0.611
1220.31	0.659
1228.91	0.706
1237.51	0.717
1246.1	0.718
1254.7	0.714
1263.3	0.688
1271.89	0.61
1280.49	0.592
1289.09	0.544
1297.69	0.547
1306.28	0.663
1314.88	0.696
1323.48	0.687
1332.07	0.665
1340.67	0.565
1349.27	0.151
1357.87	0.547
1366.46	0.34
1375.06	0.153
1383.66	0.184
1392.25	0.421
1400.85	0.545
1409.45	0.503
1418.04	0.525
1426.64	0.569
1435.24	0.451
1443.84	0.294
1452.43	0.415
1461.03	0.467
1469.63	0.53
1478.22	0.551
1486.82	0.433
1495.42	0.551
1504.02	0.581
1512.61	0.547
1521.21	0.518
1529.81	0.496
1538.4	0.446
1547	0.401
1555.6	0.417
1564.19	0.48
1572.79	0.518
1581.39	0.532
1589.99	0.566
1598.58	0.618
1607.18	0.672
1615.78	0.702
1624.37	0.717
1632.97	0.726
1641.57	0.73
1650.17	0.732
1658.76	0.733
1667.36	0.734
1675.96	0.736
1684.55	0.735
1693.15	0.735
1701.75	0.737
1710.34	0.739
1718.94	0.74
1727.54	0.74
1736.14	0.741
1744.73	0.739
1753.33	0.738
1761.93	0.742
1770.52	0.743
1779.12	0.733
1787.72	0.739
1796.32	0.742
1804.91	0.744
1813.51	0.745
1822.11	0.746
1830.7	0.744
1839.3	0.742
1847.9	0.739
1856.49	0.736
1865.09	0.737
1873.69	0.74
1882.29	0.739
1890.88	0.736
1899.48	0.732
1908.08	0.729
1916.67	0.725
1925.27	0.723
1933.87	0.722
1942.47	0.714
1951.06	0.695
1959.66	0.673
1968.26	0.684
1976.85	0.706
1985.45	0.721
1994.05	0.729
2002.65	0.732
2011.24	0.734
2019.84	0.734
2028.44	0.734
2037.03	0.734
2045.63	0.735
2054.23	0.736
2062.82	0.7378
2071.42	0.738
2080.02	0.739
2088.62	0.74
2097.21	0.74
2105.81	0.741
2114.41	0.742
2123	0.7427
2131.6	0.7439
2140.2	0.745
2148.8	0.746
2157.39	0.7453
2165.99	0.744
2174.59	0.7428
2183.18	0.742
2191.78	0.7402
2200.38	0.739
2208.97	0.7377
2217.57	0.736
2226.17	0.7342
2234.77	0.7319
2243.36	0.7297
2251.96	0.728
2260.56	0.726
2269.15	0.7249
2277.75	0.723
2286.35	0.722
2294.95	0.723
2303.54	0.725
2312.14	0.7284
2320.74	0.7327
2329.33	0.734
2337.93	0.735
2346.53	0.736
2355.12	0.7377
2363.72	0.74
2372.32	0.741
2380.92	0.742
2389.51	0.744
2398.11	0.744
2406.71	0.7417
2415.3	0.7395
2423.9	0.7372
2432.5	0.7361
2441.1	0.7383
2449.69	0.7406
2458.29	0.7429
2466.89	0.7441
2475.48	0.746
2484.08	0.7476
2492.68	0.748
2501.28	0.747
2509.87	0.747
2518.47	0.747
2527.07	0.747
2535.66	0.7468
2544.26	0.746
2552.86	0.744
2561.45	0.739
2570.05	0.7295
2578.65	0.722
2587.25	0.7043
2595.84	0.6837
2604.44	0.6783
2613.04	0.6928
2621.63	0.7005
2630.23	0.707
2638.83	0.709
2647.43	0.71
2656.02	0.71
2664.62	0.7067
2673.22	0.6902
2681.81	0.661
2690.41	0.6121
2699.01	0.6253
2707.6	0.6467
2716.2	0.6361
2724.8	0.6162
2733.4	0.5927
2741.99	0.587
2750.59	0.5933
2759.19	0.5709
2767.78	0.5055
2776.38	0.4535
2784.98	0.462
2793.58	0.4731
2802.17	0.3252
2810.77	0.3277
2819.37	0.3805
2827.96	0.372
2836.56	0.2846
2845.16	0.0545
2853.75	0.0112
2862.35	0.0126
2870.95	0.0273
2879.55	0.0831
2888.14	0.1244
2896.74	0.1506
2905.34	0.2319
2913.93	0.2834
2922.53	0.2031
2931.13	0.1207
2939.73	0.1635
2948.32	0.2218
2956.92	0.2216
2965.52	0.0369
2974.11	0.0155
2982.71	0.0686
2991.31	0.213
2999.91	0.3259
3008.5	0.5357
3017.1	0.5853
3025.7	0.6278
3034.29	0.6593
3042.89	0.6723
3051.49	0.6894
3060.08	0.7033
3068.68	0.7058
3077.28	0.709
3085.88	0.711
3094.47	0.7152
3103.07	0.7185
3111.67	0.7252
3120.26	0.728
3128.86	0.73
3137.46	0.732
3146.06	0.734
3154.65	0.736
3163.25	0.7337
3171.85	0.7324
3180.44	0.7302
3189.04	0.728
3197.64	0.726
3206.23	0.728
3214.83	0.7309
3223.43	0.7341
3232.03	0.736
3240.62	0.7377
3249.22	0.74
3257.82	0.742
3266.41	0.7426
3275.01	0.742
3283.61	0.742
3292.21	0.7418
3300.8	0.7405
3309.4	0.74
3318	0.74
3326.59	0.7387
3335.19	0.738
3343.79	0.738
3352.38	0.738
3360.98	0.7383
3369.58	0.739
3378.18	0.74
3386.77	0.7401
3395.37	0.741
3403.97	0.74
3412.56	0.739
3421.16	0.738
3429.76	0.738
3438.36	0.737
3446.95	0.736
3455.55	0.736
3464.15	0.737
3472.74	0.738
3481.34	0.738
3489.94	0.739
3498.53	0.7395
3507.13	0.7408
3515.73	0.742
3524.33	0.743
3532.92	0.744
3541.52	0.745
3550.12	0.746
3558.71	0.7463
3567.31	0.748
3575.91	0.7489
3584.51	0.75
3593.1	0.751
3601.7	0.7516
3610.3	0.7511
3618.89	0.751
3627.49	0.751
3636.09	0.75
3644.69	0.748
3653.28	0.745
3661.88	0.7425
3670.48	0.7385
3679.07	0.736
3687.67	0.7353
3696.27	0.7375
3704.86	0.74
3713.46	0.743
3722.06	0.7443
3730.66	0.746
3739.25	0.7468
3747.85	0.748
3756.45	0.748
3765.04	0.747
3773.64	0.746
3782.24	0.745
3790.84	0.7446
3799.43	0.744
3808.03	0.744
3816.63	0.744
3825.22	0.744
3833.82	0.744
3842.42	0.744
3851.01	0.744
3859.61	0.744
3868.21	0.744
3876.81	0.743
3885.4	0.742
3894	0.7415
3902.6	0.74
3911.19	0.738
3919.79	0.737
3928.39	0.736
3936.99	0.736
3945.58	0.7339
3954.18	0.7306
3962.78	0.7288
3971.37	0.728
3979.97	0.725
