Infrared Spectrum: 2-Methoxyethyl bromide
Formula: C 3 H 7 Br O
CAS: 6482-24-2
State: gas
Origin: EPA-IR VAPOR PHASE LIBRARY
1/CM	ABSORBANCE
549.8	0.001243
559.445	0.001813
569.09	0.002743
578.734	0.002673
588.379	0.003193
598.024	0.001893
607.669	0.001363
617.313	0.001323
626.958	0.001113
636.603	0.001913
646.248	0.003193
655.893	0.005243
665.537	0.007663
675.182	0.006973
684.827	0.004503
694.472	0.002413
704.116	0.001773
713.761	0.001373
723.406	0.0009878
733.051	0.000766
742.695	0.0007381
752.34	0.0004426
761.985	0.0007053
771.63	0.0010095
781.275	0.0010624
790.919	0.001223
800.564	0.001353
810.209	0.0010548
819.854	0.0007238
829.498	0.0009143
839.143	0.0007068
848.788	0.0007933
858.433	0.0009055
868.078	0.0011148
877.722	0.0010594
887.367	0.001943
897.012	0.002133
906.657	0.002773
916.301	0.003773
925.946	0.004453
935.591	0.004513
945.236	0.004933
954.88	0.004753
964.525	0.004883
974.17	0.005013
983.815	0.005333
993.46	0.004873
1003.1	0.004173
1012.75	0.004003
1022.39	0.003963
1032.04	0.005153
1041.68	0.005573
1051.33	0.005853
1060.97	0.006133
1070.62	0.007893
1080.26	0.013133
1089.91	0.021613
1099.55	0.030123
1109.2	0.036643
1118.84	0.043503
1128.49	0.046943
1138.13	0.039843
1147.78	0.026313
1157.42	0.019323
1167.07	0.018223
1176.71	0.019533
1186.36	0.020383
1196	0.017453
1205.64	0.013193
1215.29	0.010653
1224.93	0.009253
1234.58	0.007693
1244.22	0.006923
1253.87	0.005913
1263.51	0.005823
1273.16	0.007053
1282.8	0.007903
1292.45	0.006923
1302.09	0.005163
1311.74	0.003293
1321.38	0.002183
1331.03	0.001843
1340.67	0.001863
1350.32	0.002073
1359.96	0.003043
1369.61	0.004763
1379.25	0.005673
1388.9	0.004703
1398.54	0.002683
1408.18	0.002333
1417.83	0.003673
1427.47	0.004593
1437.12	0.006013
1446.76	0.006123
1456.41	0.006913
1466.05	0.006423
1475.7	0.005053
1485.34	0.003363
1494.99	0.002393
1504.63	0.001773
1514.28	0.001433
1523.92	0.001243
1533.57	0.0011036
1543.21	0.0010379
1552.86	0.0008788
1562.5	0.0008377
1572.15	0.000735
1581.79	0.0007634
1591.44	0.0008444
1601.08	0.0008716
1610.73	0.0006433
1620.37	0.0006311
1630.01	0.0005445
1639.66	0.000551
1649.3	0.0004446
1658.95	0.0004716
1668.59	0.0003778
1678.24	0.0003866
1687.88	0.000433
1697.53	0.0003128
1707.17	0.0003609
1716.82	0.0003594
1726.46	0.0003671
1736.11	0.0003379
1745.75	0.000437
1755.4	0.0003345
1765.04	0.0003536
1774.69	0.0003849
1784.33	0.0003094
1793.98	0.0003844
1803.62	0.0004019
1813.27	0.0003813
1822.91	0.0003851
1832.55	0.0003454
1842.2	0.0004155
1851.84	0.0003876
1861.49	0.0004133
1871.13	0.0004655
1880.78	0.0004244
1890.42	0.0005288
1900.07	0.0004955
1909.71	0.0005716
1919.36	0.0006607
1929	0.0006527
1938.65	0.0005655
1948.29	0.0006018
1957.94	0.0006669
1967.58	0.0006508
1977.23	0.0006391
1986.87	0.0005977
1996.52	0.0007699
2006.16	0.0009288
2015.81	0.0009613
2025.45	0.0009922
2035.1	0.000894
2044.74	0.0009423
2054.38	0.0009138
2064.03	0.0009553
2073.67	0.0011456
2083.32	0.0010348
2092.96	0.0009879
2102.61	0.0009015
2112.25	0.0008503
2121.9	0.0007305
2131.54	0.0006772
2141.19	0.0006169
2150.83	0.000704
2160.48	0.0005537
2170.12	0.0005273
2179.77	0.0005786
2189.41	0.000634
2199.06	0.0006336
2208.7	0.0004753
2218.35	0.0006525
2227.99	0.0005454
2237.64	0.0005538
2247.28	0.0004856
2256.92	0.0005159
2266.57	0.0004267
2276.21	0.0004215
2285.86	0.0003435
2295.5	0.0004308
2305.15	0.0004808
2314.79	0.0005013
2324.44	0.0003893
2334.08	0.0004244
2343.73	0.0003899
2353.37	0.000438
2363.02	0.0004467
2372.66	0.0003443
2382.31	0.000502
2391.95	0.0005065
2401.6	0.0004594
2411.24	0.00045
2420.89	0.0004139
2430.53	0.0004818
2440.18	0.0004956
2449.82	0.0004307
2459.47	0.0004168
2469.11	0.0003977
2478.75	0.0004288
2488.4	0.0004326
2498.04	0.0003819
2507.69	0.0003776
2517.33	0.0003894
2526.98	0.0003756
2536.62	0.0004191
2546.27	0.0003673
2555.91	0.0003362
2565.56	0.0003491
2575.2	0.0003267
2584.85	0.0005177
2594.49	0.0006037
2604.14	0.0005562
2613.78	0.0005262
2623.43	0.0006057
2633.07	0.0007998
2642.72	0.0006724
2652.36	0.0008145
2662.01	0.0007827
2671.65	0.0008061
2681.29	0.0007896
2690.94	0.0007265
2700.58	0.0009718
2710.23	0.001213
2719.87	0.001563
2729.52	0.001783
2739.16	0.001963
2748.81	0.001953
2758.45	0.001873
2768.1	0.001933
2777.74	0.002513
2787.39	0.003423
2797.03	0.005063
2806.68	0.007713
2816.32	0.011853
2825.97	0.017183
2835.61	0.019043
2845.26	0.017273
2854.9	0.014623
2864.55	0.014913
2874.19	0.016393
2883.84	0.018003
2893.48	0.018953
2903.12	0.019473
2912.77	0.019283
2922.41	0.019973
2932.06	0.020633
2941.7	0.019283
2951.35	0.016303
2960.99	0.014383
2970.64	0.013753
2980.28	0.014583
2989.93	0.016163
2999.57	0.014533
3009.22	0.011043
3018.86	0.007043
3028.51	0.005223
3038.15	0.003833
3047.8	0.003053
3057.44	0.002343
3067.09	0.001933
3076.73	0.001583
3086.38	0.001533
3096.02	0.001343
3105.67	0.0010755
3115.31	0.0009667
3124.95	0.0009887
3134.6	0.0008056
3144.24	0.0006561
3153.89	0.0006061
3163.53	0.0003763
3173.18	0.0004438
3182.82	0.0003337
3192.47	0.0003938
3202.11	0.0003289
3211.76	0.0004142
3221.4	0.00027014
3231.05	0.0003333
3240.69	0.0002836
3250.34	0.0002141
3259.98	0.00020606
3269.63	0.0003054
3279.27	0.0002948
3288.92	0.00020428
3298.56	0.0001384
3308.21	0.0003365
3317.85	0.000394
3327.49	0.00024945
3337.14	0.00027518
3346.78	9.99e-05
3356.43	0.00026127
3366.07	0.00027496
3375.72	0.0004666
3385.36	0.0003208
3395.01	0.0004062
3404.65	0.00024084
3414.3	0.0003761
3423.94	0.0003443
3433.59	0.0002081
3443.23	0.000283
3452.88	0.00023003
3462.52	0.0002914
3472.17	0.0002999
3481.81	0.00024833
3491.46	0.0001199
3501.1	0.0001055
3510.75	0.00018135
3520.39	7.7e-05
3530.04	0.0003554
3539.68	0.0003679
3549.32	0.00021281
3558.97	0.0001659
3568.61	0.0004955
3578.26	0.0003412
3587.9	0.0003064
3597.55	0.00024905
3607.19	0.0003247
3616.84	0.0003188
3626.48	0.00023098
3636.13	0.0004501
3645.77	0.0005481
3655.42	0.0003249
3665.06	0.0001608
3674.71	0.0004706
3684.35	0.00027352
3694	0.00021099
3703.64	0.0001449
3713.29	0.0004039
3722.93	0.00017312
3732.58	0.0003011
3742.22	0.0005458
3751.86	0.0003074
3761.51	0.0003255
3771.15	0.00024406
3780.8	0.0003869
3790.44	0.0003314
3800.09	0.0003213
3809.73	0.0003434
3819.38	0.00026195
3829.02	0.0003667
3838.67	0.000372
3848.31	0.00020846
3857.96	0.0003687
3867.6	0.0004433
3877.25	0.0003337
3886.89	0.0003937
3896.54	0.00027693
3906.18	0.0003705
3915.83	0.0005985
3925.47	0.0003864
3935.12	0.0005496
3944.76	0.0003199
3954.41	0.0007344
3964.05	0.0005571
3973.69	0.0003904
3983.34	0.0006179
3992.98	0.00053
