Infrared Spectrum: 1,2-Dimethoxyethane
Formula: C 4 H 10 O 2
CAS: 110-71-4
State: gas
Instrument: HP-GC/MS/IRD
Origin: NIST Mass Spectrometry Data Center
1/CM	ABSORBANCE
550	0.0009982
562	0.0006758
574	0.0003596
586	0.0001736
598	0.0001612
610	0.0001736
622	9.92e-05
634	0.0001364
646	7.44e-05
658	3.1e-05
670	0.0001116
682	0.0001798
694	0.0002108
706	0.0002232
718	0.000248
730	0.0002852
742	0.000279
754	0.0003162
766	0.0004216
778	0.0005766
790	0.0007564
802	0.0011594
814	0.0019406
826	0.0026908
838	0.0037696
850	0.0047058
862	0.0049724
874	0.004185
886	0.0033046
898	0.003131
910	0.0036084
922	0.004433
934	0.0048174
946	0.0047864
958	0.0049476
970	0.0053196
982	0.0055428
994	0.005704
1006	0.006014
1018	0.0072354
1030	0.0078492
1042	0.0074772
1054	0.0072168
1066	0.0095666
1078	0.014694
1090	0.0228842
1102	0.0363878
1114	0.0536052
1126	0.062
1138	0.0508524
1150	0.0341
1162	0.024738
1174	0.0201004
1186	0.0208258
1198	0.0207824
1210	0.0162192
1222	0.0101804
1234	0.0071982
1246	0.006293
1258	0.0056854
1270	0.00496
1282	0.004557
1294	0.0043648
1306	0.00372
1318	0.0031806
1330	0.0030566
1342	0.0036084
1354	0.0052204
1366	0.0054808
1378	0.0043338
1390	0.0024862
1402	0.0021452
1414	0.0020956
1426	0.0025482
1438	0.0039742
1450	0.0065906
1462	0.0080724
1474	0.0064914
1486	0.0039494
1498	0.0023932
1510	0.0015872
1522	0.0012586
1534	0.000992
1546	0.0008308
1558	0.0007254
1570	0.0006448
1582	0.0006014
1594	0.0005084
1606	0.0004836
1618	0.0004154
1630	0.0003658
1642	0.0003224
1654	0.0002976
1666	0.0002976
1678	0.0002666
1690	0.0002356
1702	0.0002232
1714	0.0001302
1726	9.3e-05
1738	8.06e-05
1750	3.1e-05
1762	4.34e-05
1774	3.1e-05
1786	2.48e-05
1798	6.2e-06
1810	1.24e-05
1822	0
1834	0
1846	6.2e-06
1858	6.2e-06
1870	1.86e-05
1882	3.72e-05
1894	0.0001116
1906	0.0001426
1918	0.0002232
1930	0.0003162
1942	0.0004402
1954	0.0005828
1966	0.0006448
1978	0.000713
1990	0.000713
2002	0.0007812
2014	0.0007626
2026	0.0007006
2038	0.0007316
2050	0.0007378
2062	0.0008184
2074	0.0007254
2086	0.0006634
2098	0.0005952
2110	0.000589
2122	0.000527
2134	0.000465
2146	0.0003906
2158	0.00031
2170	0.000248
2182	0.0001798
2194	0.000155
2206	0.0001116
2218	6.2e-05
2230	8.68e-05
2242	0.0001302
2254	0.0001054
2266	9.3e-05
2278	4.96e-05
2290	4.34e-05
2302	1.86e-05
2314	3.72e-05
2326	4.34e-05
2338	3.72e-05
2350	4.34e-05
2362	6.82e-05
2374	0.0001054
2386	0.0001116
2398	9.3e-05
2410	9.92e-05
2422	8.68e-05
2434	0.0001054
2446	4.34e-05
2458	5.58e-05
2470	6.82e-05
2482	8.06e-05
2494	7.44e-05
2506	9.92e-05
2518	0.0001364
2530	0.0001798
2542	0.0002046
2554	0.0002914
2566	0.0003534
2578	0.000434
2590	0.0005332
2602	0.0006448
2614	0.0006386
2626	0.0006634
2638	0.0006324
2650	0.0007006
2662	0.0007998
2674	0.0009238
2686	0.0011284
2698	0.0015252
2710	0.0019964
2722	0.0023746
2734	0.0025606
2746	0.002728
2758	0.0031558
2770	0.0040114
2782	0.0054994
2794	0.008246
2806	0.0137144
2818	0.02263
2830	0.027652
2842	0.027063
2854	0.0274288
2866	0.0310558
2878	0.0354082
2890	0.037634
2902	0.0371008
2914	0.0361522
2926	0.0367226
2938	0.0346332
2950	0.0286006
2962	0.0226858
2974	0.02046
2986	0.0211358
2998	0.01798
3010	0.0110546
3022	0.0062186
3034	0.0041788
3046	0.0033108
3058	0.0028024
3070	0.0023994
3082	0.0020274
3094	0.0016802
3106	0.0014322
3118	0.0011222
3130	0.0009548
3142	0.000775
3154	0.0006076
3166	0.0005394
3178	0.0004588
3190	0.0004774
3202	0.0004464
3214	0.0003534
3226	0.0003038
3238	0.0002976
3250	0.0002728
3262	0.0002294
3274	0.0002108
3286	0.000279
3298	0.0002294
3310	0.0002294
3322	0.0001984
3334	0.0002356
3346	0.000217
3358	0.0001736
3370	0.000248
3382	0.000217
3394	0.000217
3406	0.0001364
3418	0.0002356
3430	0.0001612
3442	0.0002046
3454	0.0001116
3466	0.000155
3478	0.0001488
3490	0.0001302
3502	0.000186
3514	0.000124
3526	0.000124
3538	5.58e-05
3550	6.2e-05
3562	8.68e-05
3574	9.3e-05
3586	9.92e-05
3598	6.82e-05
3610	0.0001178
3622	9.92e-05
3634	0.0001674
3646	0.0001674
3658	0.0001426
3670	0.0001984
3682	0.000186
3694	0.0001302
3706	0.0001984
3718	0.0002356
3730	0.0002418
3742	0.000248
3754	0.0001922
3766	0.000217
3778	0.0002232
3790	0.0001674
3802	0.0002542
3814	0.0002728
3826	0.000248
3838	0.0002604
