Infrared Spectrum: 3-Buten-2-ol
Formula: C 4 H 8 O
CAS: 598-32-3
State: gas
Origin: Sadtler Research Labs Under US-EPA Contract
1/CM	ABSORBANCE
450	0.00297617
462	0.0155676
474	0.0089285
486	0.0151098
498	0.00915744
510	0.0231225
522	0.0360193
534	0.0352561
546	0.0347983
558	0.0389191
570	0.0246488
582	0.0318221
594	0.0270144
606	0.0188491
618	0.0176281
630	0.0121336
642	0.0228173
654	0.0459398
666	0.0733358
678	0.101953
690	0.0877588
702	0.0560893
714	0.0218252
726	0.00671546
738	0.000228936
750	0.000457872
762	0.000839432
774	0.00244198
786	0.0112179
798	0.0277776
810	0.0426584
822	0.0507475
834	0.0422768
846	0.0296854
858	0.020299
870	0.0209095
882	0.0398349
894	0.117292
906	0.333712
918	0.644073
930	0.689174
942	0.479545
954	0.217718
966	0.179333
978	0.257935
990	0.373013
1002	0.395296
1014	0.390717
1026	0.432079
1038	0.487405
1050	0.499538
1062	0.419182
1074	0.36439
1086	0.415977
1098	0.456422
1110	0.419182
1122	0.30975
1134	0.26671
1146	0.258927
1158	0.245267
1170	0.21085
1182	0.153921
1194	0.114697
1206	0.11485
1218	0.150564
1230	0.238933
1242	0.353706
1254	0.344701
1266	0.27747
1278	0.157737
1290	0.128509
1302	0.142322
1314	0.171168
1326	0.199098
1338	0.219626
1350	0.224052
1362	0.263276
1374	0.308148
1386	0.297769
1398	0.234812
1410	0.223899
1422	0.226647
1434	0.205966
1446	0.154761
1458	0.127975
1470	0.0827222
1482	0.0461688
1494	0.023733
1506	0.0128204
1518	0.00923375
1530	0.00488397
1542	0.00396822
1554	0.0038156
1566	0.00137362
1578	0.00709702
1590	0.00732595
1602	0.0109889
1614	0.0151098
1626	0.0219015
1638	0.044261
1650	0.0518158
1662	0.044032
1674	0.0188491
1686	0.0145756
1698	0.0109126
1710	0.0109889
1722	0.0140414
1734	0.0274723
1746	0.0378508
1758	0.0301432
1770	0.0154913
1782	0.0114468
1794	0.0103021
1806	0.0109889
1818	0.00793645
1830	0.0141177
1842	0.0352561
1854	0.0421242
1866	0.0341115
1878	0.011752
1890	0.00343404
1902	0.00434978
1914	0.00457872
1926	0.00358666
1938	0.00373929
1950	0.00427347
1962	0.0051129
1974	0.00656283
1986	0.00549446
1998	0.0032051
2010	0.00198411
2022	0.0019078
2034	0.00106837
2046	0.000228936
2058	0.00114468
2070	0.00221305
2082	0.0025183
2094	0.000915744
2106	0.000610496
2118	0.000228936
2130	0.00038156
2142	0.00106837
2154	0.00221305
2166	0.000915744
2178	0.00152624
2190	0.00106837
2202	0.00122099
2214	0.000610496
2226	0.000152624
2238	0.000534184
2250	0.00076312
2262	0.00206042
2274	0.0025183
2286	0.00404454
2298	0.00480766
2310	0.00518922
2322	0.00579971
2334	0.00267092
2346	0.000839432
2358	0.00541815
2370	0
2382	0.000992056
2394	0.00412085
2406	0.0044261
2418	0.00427347
2430	0.0038156
2442	0.00457872
2454	0.00457872
2466	0.00465503
2478	0.00373929
2490	0.00503659
2502	0.00404454
2514	0.00389191
2526	0.00289986
2538	0.0025183
2550	0.00434978
2562	0.00587602
2574	0.00885219
2586	0.0115231
2598	0.0120573
2610	0.0113705
2622	0.0114468
2634	0.0112179
2646	0.0103784
2658	0.0103784
2670	0.0106837
2682	0.0121336
2694	0.011981
2706	0.0113705
2718	0.0128967
2730	0.0143467
2742	0.0163308
2754	0.0171702
2766	0.0169413
2778	0.016636
2790	0.0180096
2802	0.0229699
2814	0.0280828
2826	0.0393007
2838	0.0687571
2850	0.128891
2862	0.237559
2874	0.320816
2886	0.341801
2898	0.287162
2910	0.236109
2922	0.220465
2934	0.226952
2946	0.229699
2958	0.291054
2970	0.493739
2982	0.758618
2994	0.655978
3006	0.419029
3018	0.193375
3030	0.113934
3042	0.070207
3054	0.0534947
3066	0.0792882
3078	0.14919
3090	0.227486
3102	0.165368
3114	0.0953137
3126	0.027396
3138	0.0119047
3150	0.00862326
3162	0.00778382
3174	0.00755489
3186	0.00915744
3198	0.0104547
3210	0.00969162
3222	0.0103784
3234	0.00496028
3246	0.00221305
3258	0
3270	0.000610496
3282	0.000534184
3294	0.00137362
3306	0.000915744
3318	0.00167886
3330	0.00259461
3342	0.00259461
3354	0.0063339
3366	0.00663914
3378	0.00503659
3390	0.00465503
3402	0.00579971
3414	0.00732595
3426	0.00663914
3438	0.00518922
3450	0.00579971
3462	0.00686808
3474	0.00496028
3486	0.00480766
3498	0.00457872
3510	0.00473134
3522	0.0057234
3534	0.0032051
3546	0.00618127
3558	0.00618127
3570	0.0089285
3582	0.0103021
3594	0.0135835
3606	0.0184675
3618	0.0397586
3630	0.101266
3642	0.183072
3654	0.178265
3666	0.152395
3678	0.0682229
3690	0.0241909
3702	0.00984425
3714	0.00770751
3726	0.00724964
3738	0.00671546
3750	0.00694439
3762	0.00312879
3774	0.00366298
3786	0.0019078
3798	0.00396822
3810	0.00801276
3822	0.00648652
3834	0.00831801
3846	0.00755489
3858	0.00938638
3870	0.0105311
3882	0.00793645
3894	0.0100732
3906	0.0103021
3918	0.00747858
3930	0.00595234
3942	0.00228936
3954	0.00610496
3966	0.00312879
