Infrared Spectrum: Ethylenimine
Formula: C2 H5 N
CAS: 151-56-4
State: GAS (80 mmHg, N2 ADDED, TOTAL PRESSURE 600 mmHg)
Class: COBLENTZ
Instrument: DOW KBr FOREPRISM-GRATING
Instrument parameters: GRATING CHANGED AT 5.0, 7.5, 15.0 MICRON
Sampling: TRANSMISSION
Path length: 5 CM
Resolution: 2
Origin: DOW CHEMICAL COMPANY
1/CM	TRANSMITTANCE
458	0.9324
467	0.9238
476	0.9172
485	0.9136
494	0.9101
503	0.907
512	0.9048
521	0.9041
530	0.9052
539	0.907
548	0.9092
557	0.9114
566	0.913
575	0.9143
584	0.9156
593	0.9166
602	0.9175
611	0.918
620	0.9189
629	0.9211
638	0.9237
647	0.9246
656	0.9236
665	0.9234
674	0.9218
683	0.9222
692	0.92
701	0.9115
710	0.8922
719	0.8512
728	0.7369
737	0.6469
746	0.5307
755	0.4625
764	0.4073
773	0.6527
782	0.4278
791	0.3063
800	0.4173
809	0.6153
818	0.5601
827	0.2986
836	0.1647
845	0.2529
854	0.414
863	0.2626
872	0.2332
881	0.2306
890	0.3176
899	0.4177
908	0.6281
917	0.6027
926	0.5388
935	0.6327
944	0.7762
953	0.8436
962	0.8004
971	0.7749
980	0.768
989	0.7529
998	0.7418
1007	0.7314
1016	0.7031
1025	0.7772
1034	0.8724
1043	0.8505
1052	0.8187
1061	0.7531
1070	0.7136
1079	0.6987
1088	0.7044
1097	0.5754
1106	0.5918
1115	0.6292
1124	0.7408
1133	0.5638
1142	0.8378
1151	0.8683
1160	0.8593
1169	0.8028
1178	0.7413
1187	0.6636
1196	0.5826
1205	0.4257
1214	0.4242
1223	0.4343
1232	0.3616
1241	0.3832
1250	0.4786
1259	0.6008
1268	0.5497
1277	0.7203
1286	0.804
1295	0.8331
1304	0.8621
1313	0.8887
1322	0.9058
1331	0.9137
1340	0.918
1349	0.918
1358	0.9251
1367	0.9142
1376	0.9045
1385	0.9035
1394	0.9071
1403	0.9084
1412	0.9066
1421	0.9022
1430	0.8954
1439	0.8857
1448	0.8831
1457	0.8759
1466	0.8704
1475	0.8823
1484	0.7108
1493	0.891
1502	0.8852
1511	0.8814
1520	0.8835
1529	0.8912
1538	0.891
1547	0.8843
1556	0.8869
1565	0.8885
1574	0.8919
1583	0.8953
1592	0.8927
1601	0.8859
1610	0.8782
1619	0.8713
1628	0.8615
1637	0.8627
1646	0.8413
1655	0.8481
1664	0.8687
1673	0.8833
1682	0.8849
1691	0.8987
1700	0.8964
1709	0.9022
1718	0.8989
1727	0.9
1736	0.8956
1745	0.8922
1754	0.8892
1763	0.8568
1772	0.892
1781	0.888
1790	0.8837
1799	0.8843
1808	0.8624
1817	0.8896
1826	0.8916
1835	0.8906
1844	0.8886
1853	0.8853
1862	0.8888
1871	0.8904
1880	0.8886
1889	0.8855
1898	0.8798
1907	0.8795
1916	0.8798
1925	0.8725
1934	0.8697
1943	0.8712
1952	0.871
1961	0.8705
1970	0.8651
1979	0.8687
1988	0.8272
1997	0.8696
2006	0.869
2015	0.857
2024	0.8513
2033	0.815
2042	0.8168
2051	0.8402
2060	0.8414
2069	0.8451
2078	0.8483
2087	0.8492
2096	0.8262
2105	0.8509
2114	0.853
2123	0.8682
2132	0.8699
2141	0.8748
2150	0.8735
2159	0.8632
2168	0.8649
2177	0.8579
2186	0.8459
2195	0.8533
2204	0.8594
2213	0.8647
2222	0.8686
2231	0.8755
2240	0.8798
2249	0.8746
2258	0.8546
2267	0.8893
2276	0.8922
2285	0.8929
2294	0.8938
2303	0.896
2312	0.8962
2321	0.8965
2330	0.8983
2339	0.9004
2348	0.9014
2357	0.9028
2366	0.9059
2375	0.9043
2384	0.9016
2393	0.901
2402	0.9013
2411	0.9018
2420	0.9013
2429	0.8968
2438	0.891
2447	0.8908
2456	0.8883
2465	0.8827
2474	0.89
2483	0.8904
2492	0.8906
2501	0.893
2510	0.8976
2519	0.8953
2528	0.8928
2537	0.8913
2546	0.8915
2555	0.8923
2564	0.8935
2573	0.8953
2582	0.8977
2591	0.9008
2600	0.9037
2609	0.9054
2618	0.905
2627	0.9048
2636	0.9043
2645	0.9037
2654	0.9035
2663	0.9033
2672	0.9035
2681	0.9036
2690	0.9038
2699	0.9036
2708	0.9034
2717	0.9022
2726	0.9029
2735	0.9051
2744	0.9063
2753	0.9063
2762	0.9061
2771	0.9056
2780	0.9052
2789	0.9045
2798	0.9032
2807	0.9021
2816	0.9072
2825	0.9056
2834	0.9032
2843	0.8972
2852	0.8899
2861	0.8785
2870	0.8571
2879	0.8176
2888	0.7812
2897	0.7487
2906	0.7221
2915	0.6758
2924	0.6982
2933	0.6793
2942	0.6807
2951	0.7122
2960	0.721
2969	0.6494
2978	0.4953
2987	0.3574
2996	0.2818
3005	0.2658
3014	0.1392
3023	0.2873
3032	0.2186
3041	0.2383
3050	0.359
3059	0.5247
3068	0.6258
3077	0.1822
3086	0.6646
3095	0.5114
3104	0.4591
3113	0.5459
3122	0.6714
3131	0.8286
3140	0.8724
3149	0.8903
3158	0.8987
3167	0.9006
3176	0.902
3185	0.9046
3194	0.9049
3203	0.9045
3212	0.9043
3221	0.9056
3230	0.9059
3239	0.9035
3248	0.9053
3257	0.9085
3266	0.9085
3275	0.9079
3284	0.9064
3293	0.9012
3302	0.8934
3311	0.8859
3320	0.8826
3329	0.8775
3338	0.8624
3347	0.8868
3356	0.8872
3365	0.8893
3374	0.896
3383	0.9078
3392	0.9111
3401	0.9121
3410	0.9126
3419	0.9128
3428	0.9125
3437	0.9121
3446	0.9113
3455	0.9103
3464	0.9095
3473	0.9089
3482	0.9084
3491	0.9085
3500	0.9085
3509	0.9085
3518	0.9084
3527	0.9083
3536	0.9082
3545	0.9083
3554	0.9085
3563	0.9086
3572	0.909
3581	0.9093
3590	0.9098
3599	0.9099
3608	0.91
3617	0.9068
3626	0.9086
3635	0.907
3644	0.9042
3653	0.9074
3662	0.9073
3671	0.9066
3680	0.8996
3689	0.9024
3698	0.9046
3707	0.9064
3716	0.9076
3725	0.9072
3734	0.9058
3743	0.9015
3752	0.8967
3761	0.8928
3770	0.8907
3779	0.8896
3788	0.8901
