Infrared Spectrum: ETHYLENEIMINE
Formula: C2 H5 N
CAS: 151-56-4
State: LIQUID
Class: COBLENTZ
Instrument: Not specified, most likely a prism, grating, or hybrid spectrometer.
Sampling: TRANSMISSION
Path length: 0.003 CM
Resolution: 4
Origin: WYANDOTTE CHEMICALS CORP., WYANDOTTE, MICHIGAN, USA
MICROMETERS	TRANSMITTANCE
2.08	0.985
2.11975	0.885
2.1595	0.878
2.19925	0.956
2.23901	0.953
2.27876	0.943
2.31851	0.938
2.35826	0.953
2.39801	0.965
2.43776	0.976
2.47751	0.988
2.51726	0.981
2.55702	0.93
2.59677	0.921
2.63652	0.965
2.67627	0.973
2.71602	0.981
2.75577	0.981
2.79552	0.968
2.83528	0.93
2.87503	0.893
2.91478	0.832
2.95453	0.757
2.99428	0.702
3.03403	0.39
3.07378	0.039
3.11354	0.031
3.15329	0.059
3.19304	0.204
3.23279	0.33
3.27254	0.071
3.31229	0.126
3.35204	0.247
3.39179	0.48
3.43155	0.406
3.4713	0.639
3.51105	0.802
3.5508	0.865
3.59055	0.887
3.6303	0.898
3.67005	0.89
3.70981	0.88
3.74956	0.863
3.78931	0.845
3.82906	0.823
3.86881	0.813
3.90856	0.795
3.94831	0.74
3.98807	0.737
4.02782	0.772
4.06757	0.822
4.10732	0.858
4.14707	0.855
4.18682	0.82
4.22657	0.807
4.26632	0.817
4.30608	0.813
4.34583	0.815
4.38558	0.812
4.42533	0.817
4.46508	0.825
4.50483	0.818
4.54458	0.802
4.58434	0.775
4.62409	0.734
4.66384	0.687
4.70359	0.75
4.74334	0.767
4.78309	0.75
4.82284	0.774
4.86259	0.764
4.90235	0.724
4.9421	0.754
4.98185	0.784
5.0216	0.825
5.06135	0.843
5.1011	0.865
5.14085	0.872
5.18061	0.837
5.22036	0.868
5.26011	0.86
5.29986	0.862
5.33961	0.863
5.37936	0.848
5.41911	0.855
5.45887	0.87
5.49862	0.853
5.53837	0.847
5.57812	0.853
5.61787	0.875
5.65762	0.89
5.69737	0.897
5.73712	0.893
5.77688	0.882
5.81663	0.873
5.85638	0.872
5.89613	0.872
5.93588	0.87
5.97563	0.853
6.01538	0.84
6.05514	0.82
6.09489	0.752
6.13464	0.739
6.17439	0.795
6.21414	0.823
6.25389	0.825
6.29364	0.825
6.3334	0.83
6.37315	0.837
6.4129	0.835
6.45265	0.832
6.4924	0.828
6.53215	0.825
6.5719	0.818
6.61165	0.807
6.65141	0.79
6.69116	0.752
6.73091	0.702
6.77066	0.686
6.81041	0.626
6.85016	0.5
6.88991	0.686
6.92967	0.729
6.96942	0.747
7.00917	0.755
7.04892	0.757
7.08867	0.75
7.12842	0.735
7.16817	0.727
7.20792	0.717
7.24768	0.697
7.28743	0.682
7.32718	0.657
7.36693	0.622
7.40668	0.584
7.44643	0.531
7.48618	0.465
7.52594	0.382
7.56569	0.315
7.60544	0.269
7.64519	0.244
7.68494	0.227
7.72469	0.214
7.76444	0.204
7.8042	0.186
7.84395	0.169
7.8837	0.162
7.92345	0.167
7.9632	0.192
8.00295	0.209
8.0427	0.22
8.08245	0.23
8.12221	0.23
8.16196	0.149
8.20171	0.036
8.24146	0.023
8.28121	0.126
8.32096	0.294
8.36071	0.458
8.40047	0.541
8.44022	0.598
8.47997	0.622
8.51972	0.637
8.55947	0.647
8.59922	0.646
8.63897	0.639
8.67873	0.602
8.71848	0.524
8.75823	0.41
8.79798	0.383
8.83773	0.431
8.87748	0.48
8.91723	0.486
8.95698	0.463
8.99674	0.393
9.03649	0.274
9.07624	0.172
9.11599	0.089
9.15574	0.048
9.19549	0.074
9.23524	0.2
9.275	0.363
9.31475	0.476
9.3545	0.544
9.39425	0.584
9.434	0.604
9.47375	0.611
9.5135	0.602
9.55326	0.591
9.59301	0.561
9.63276	0.508
9.67251	0.461
9.71226	0.406
9.75201	0.377
9.79176	0.36
9.83151	0.362
9.87127	0.387
9.91102	0.426
9.95077	0.465
9.99052	0.506
10.0303	0.558
10.07	0.586
10.1098	0.601
10.1495	0.609
10.1893	0.614
10.229	0.614
10.2688	0.612
10.3085	0.609
10.3483	0.601
10.388	0.588
10.4278	0.573
10.4675	0.551
10.5073	0.511
10.547	0.468
10.5868	0.415
10.6265	0.338
10.6663	0.26
10.706	0.187
10.7458	0.146
10.7855	0.129
10.8253	0.129
10.865	0.137
10.9048	0.157
10.9446	0.171
10.9843	0.202
11.0241	0.229
11.0638	0.259
11.1036	0.292
11.1433	0.322
11.1831	0.33
11.2228	0.333
11.2626	0.32
11.3023	0.299
11.3421	0.275
11.3818	0.23
11.4216	0.184
11.4613	0.122
11.5011	0.073
11.5408	0.041
11.5806	0.026
11.6203	0.018
11.6601	0.016
11.6998	0.019
11.7396	0.019
11.7793	0.016
11.8191	0.013
11.8588	0.019
11.8986	0.038
11.9383	0.076
11.9781	0.124
12.0178	0.166
12.0576	0.224
12.0973	0.27
12.1371	0.303
12.1768	0.33
12.2166	0.345
12.2563	0.353
12.2961	0.373
12.3358	0.393
12.3756	0.398
12.4154	0.39
12.4551	0.37
12.4949	0.327
12.5346	0.269
12.5744	0.196
12.6141	0.117
12.6539	0.059
12.6936	0.038
12.7334	0.024
12.7731	0.029
12.8129	0.033
12.8526	0.054
12.8924	0.096
12.9321	0.162
12.9719	0.234
13.0116	0.318
13.0514	0.39
13.0911	0.448
13.1309	0.504
13.1706	0.541
13.2104	0.581
13.2501	0.602
13.2899	0.632
13.3296	0.647
13.3694	0.664
13.4091	0.682
13.4489	0.697
13.4886	0.707
13.5284	0.719
13.5681	0.73
13.6079	0.739
13.6476	0.749
13.6874	0.752
13.7271	0.759
13.7669	0.764
13.8067	0.765
13.8464	0.772
13.8862	0.779
13.9259	0.787
13.9657	0.795
14.0054	0.8
14.0452	0.8
14.0849	0.802
14.1247	0.805
14.1644	0.808
14.2042	0.812
14.2439	0.813
14.2837	0.815
14.3234	0.817
14.3632	0.817
14.4029	0.818
14.4427	0.818
14.4824	0.818
14.5222	0.818
14.5619	0.818
14.6017	0.818
14.6414	0.818
14.6812	0.815
14.7209	0.813
14.7607	0.813
14.8004	0.813
14.8402	0.813
14.8799	0.813
14.9197	0.813
14.9594	0.813
14.9992	0.808
15.0389	0.792
15.0787	0.784
15.1184	0.79
15.1582	0.8
15.1979	0.802
15.2377	0.8
15.2775	0.794
15.3172	0.784
15.357	0.789
15.3967	0.774
15.4365	0.78
15.4762	0.772
15.516	0.769
15.5557	0.759
15.5955	0.759
15.6352	0.759
15.675	0.754
15.7147	0.754
15.7545	0.752
15.7942	0.732
15.834	0.73
15.8737	0.725
15.9135	0.722
15.9532	0.705
15.993	0.699
