Infrared Spectrum: 2-Propanol, 2-methyl-
Formula: C 4 H 10 O
CAS: 75-65-0
State: gas
Origin: Sadtler Research Labs Under US-EPA Contract
1/CM	ABSORBANCE
450	0.0199632
462	0.0460145
474	0.0543679
486	0.0484214
498	0.0336968
510	0.0178395
522	0.0100524
534	0.00891973
546	0.00778707
558	0.00807023
570	0.0058049
582	0.0092029
594	0.011893
606	0.0138751
618	0.0158573
630	0.0137336
642	0.0171315
654	0.0171315
666	0.0140167
678	0.0178395
690	0.0144415
702	0.0130256
714	0.0141583
726	0.020388
738	0.0256265
750	0.0378027
762	0.0277503
774	0.0167068
786	0.0159989
798	0.0270424
810	0.0317146
822	0.0302988
834	0.0293077
846	0.0192553
858	0.0140167
870	0.0193969
882	0.0461561
894	0.131955
906	0.229931
918	0.434801
930	0.313323
942	0.221577
954	0.163953
966	0.142574
978	0.0815518
990	0.0471471
1002	0.0516778
1014	0.0638539
1026	0.0564916
1038	0.0574827
1050	0.0753222
1062	0.101798
1074	0.13238
1086	0.137477
1098	0.144131
1110	0.178961
1122	0.280334
1134	0.38992
1146	0.432678
1158	0.388504
1170	0.284299
1182	0.252584
1194	0.300722
1206	0.411015
1218	0.439474
1230	0.357355
1242	0.223984
1254	0.182784
1266	0.152485
1278	0.116948
1290	0.0974091
1302	0.109444
1314	0.136486
1326	0.166218
1338	0.167068
1350	0.234037
1362	0.359196
1374	0.562085
1386	0.437775
1398	0.231205
1410	0.108594
1422	0.0618718
1434	0.0590401
1446	0.0802776
1458	0.106329
1470	0.128841
1482	0.0891973
1494	0.0698004
1506	0.0356789
1518	0.0172731
1530	0.0109019
1542	0.00736232
1554	0.00608807
1566	0.00339799
1578	0.00226533
1590	0.000424749
1602	0.000991081
1614	0.00566332
1626	0.00410591
1638	0.00693757
1650	0.00792865
1662	0.00891973
1674	0.0083534
1686	0.00764548
1698	0.00707915
1710	0.00566332
1722	0.00778707
1734	0.00891973
1746	0.0083534
1758	0.00807023
1770	0.00707915
1782	0.00622965
1794	0.00495541
1806	0.00693757
1818	0.00849498
1830	0.00877815
1842	0.00693757
1854	0.00509699
1866	0.00382274
1878	0.00368116
1890	0.00438907
1902	0.00311483
1914	0.00226533
1926	0.00254849
1938	0.00113266
1950	0.00141583
1962	0.000849498
1974	0.00141583
1986	0.000849498
1998	0.00141583
2010	0.00311483
2022	0.00198216
2034	0.00311483
2046	0.00353958
2058	0.00453066
2070	0.00311483
2082	0.00297324
2094	0.00509699
2106	0.00509699
2118	0.00736232
2130	0.0075039
2142	0.0066544
2154	0.00509699
2166	0.0058049
2178	0.00552174
2190	0.00311483
2202	0.00311483
2214	0.00325641
2226	0.00254849
2238	0.00382274
2250	0.00495541
2262	0.00679598
2274	0.0083534
2286	0.00991081
2298	0.00821181
2310	0.00509699
2322	0.00438907
2334	0.00481382
2346	0.0083534
2358	0.0058049
2370	0.0172731
2382	0.0127425
2394	0.00962764
2406	0.0103356
2418	0.00934448
2430	0.0100524
2442	0.00991081
2454	0.0107603
2466	0.0104771
2478	0.0113266
2490	0.0109019
2502	0.0103356
2514	0.0100524
2526	0.00962764
2538	0.0100524
2550	0.00906131
2562	0.00877815
2574	0.0114682
2586	0.0127425
2598	0.0158573
2610	0.017981
2622	0.0202464
2634	0.0208127
2646	0.0206711
2658	0.0242107
2670	0.0198216
2682	0.0193969
2694	0.023078
2706	0.0260513
2718	0.0276087
2730	0.0297324
2742	0.0319978
2754	0.0300156
2766	0.0310067
2778	0.0301572
2790	0.0318562
2802	0.0365284
2814	0.0407759
2826	0.0496956
2838	0.0600312
2850	0.0921705
2862	0.158856
2874	0.2254
2886	0.309217
2898	0.338667
2910	0.342065
2922	0.358063
2934	0.405635
2946	0.521025
2958	0.795555
2970	1.17995
2982	1.41583
2994	0.830667
3006	0.402945
3018	0.0910379
3030	0.0225117
3042	0.011893
3054	0.00962764
3066	0.00651282
3078	0.0103356
3090	0.00906131
3102	0.0130256
3114	0.00934448
3126	0.0103356
3138	0.0140167
3150	0.010194
3162	0.0164236
3174	0.0174147
3186	0.0174147
3198	0.0167068
3210	0.0167068
3222	0.0167068
3234	0.0140167
3246	0.0120346
3258	0.00495541
3270	0.00368116
3282	0.00424749
3294	0.00608807
3306	0.010194
3318	0.00538015
3330	0.00622965
3342	0.00509699
3354	0.00438907
3366	0.0075039
3378	0.0066544
3390	0.0092029
3402	0.00906131
3414	0.0155741
3426	0.0141583
3438	0.0164236
3450	0.0165652
3462	0.0154325
3474	0.0123177
3486	0.0092029
3498	0.0128841
3510	0.00948606
3522	0.0104771
3534	0.00976923
3546	0.0116098
3558	0.0140167
3570	0.0130256
3582	0.0148662
3594	0.0127425
3606	0.0195385
3618	0.0372363
3630	0.0746142
3642	0.120912
3654	0.103497
3666	0.0925953
3678	0.0528105
3690	0.0294493
3702	0.0182642
3714	0.0155741
3726	0.017981
3738	0.015291
3750	0.0161405
3762	0.0164236
3774	0.0191137
3786	0.0191137
3798	0.0185474
3810	0.0199632
3822	0.0219454
3834	0.023078
3846	0.0209543
3858	0.026476
3870	0.024777
3882	0.0260513
3894	0.0257681
3906	0.0237859
3918	0.0218038
3930	0.0263344
3942	0.0182642
3954	0.0212375
3966	0.0257681
