Infrared Spectrum: TERT-BUTYL ALCOHOL
Formula: C4 H10 O
CAS: 75-65-0
State: SOLUTION (10.5% IN CCl4 FOR 3800-1300, 5.2% IN CS2 FOR 1300-650, AND 10.5% IN CCl4 FOR 650-250 CM^-^1) VERSUS SOLVENT
Class: COBLENTZ
Instrument: Not specified, most likely a grating or hybrid spectrometer.
Sampling: TRANSMISSION
Path length: 0.010, 0.010, AND 0.02 CM (CsBr CELL)
Resolution: 4
Origin: DOW CORNING CORP.
1/CM	TRANSMITTANCE
229.213	0.57
238.202	0.568
247.191	0.571
256.179	0.576
265.168	0.586
274.157	0.591
283.146	0.619
292.135	0.637
301.123	0.67
310.112	0.678
319.101	0.688
328.09	0.68
337.079	0.607
346.067	0.605
355.056	0.6799
364.045	0.73
373.034	0.736
382.023	0.73
391.011	0.725
400	0.717
408.989	0.694
417.978	0.6101
426.967	0.605
435.955	0.656
444.944	0.6191
453.933	0.5141
462.922	0.391
471.911	0.4919
480.9	0.584
489.888	0.605
498.877	0.611
507.866	0.619
516.855	0.63
525.844	0.642
534.832	0.654
543.821	0.669
552.81	0.683
561.799	0.698
570.788	0.712
579.776	0.726
588.765	0.741
597.754	0.755
606.743	0.769
615.732	0.784
624.72	0.798
633.709	0.813
642.698	0.824
651.687	0.833
660.676	0.843
669.664	0.849
678.653	0.856
687.642	0.859
696.631	0.867
705.62	0.875
714.608	0.88
723.597	0.883
732.586	0.872
741.575	0.7382
750.564	0.8426
759.552	0.896
768.541	0.91
777.53	0.915
786.519	0.918
795.508	0.921
804.496	0.928
813.485	0.932
822.474	0.934
831.463	0.936
840.452	0.934
849.44	0.928
858.429	0.921
867.418	0.91
876.407	0.883
885.396	0.833
894.385	0.6822
903.373	0.3141
912.362	0.167
921.351	0.5302
930.34	0.849
939.329	0.884
948.317	0.907
957.306	0.915
966.295	0.916
975.284	0.92
984.273	0.904
993.261	0.892
1002.25	0.849
1011.24	0.7581
1020.23	0.75
1029.22	0.854
1038.21	0.881
1047.19	0.889
1056.18	0.891
1065.17	0.888
1074.16	0.881
1083.15	0.872
1092.14	0.862
1101.13	0.833
1110.12	0.806
1119.1	0.728
1128.09	0.6179
1137.08	0.447
1146.07	0.519
1155.06	0.471
1164.05	0.381
1173.04	0.301
1182.03	0.233
1191.02	0.23
1200	0.188
1208.99	0.2441
1217.98	0.575
1226.97	0.592
1235.96	0.538
1244.95	0.7331
1253.94	0.833
1262.93	0.854
1271.91	0.859
1280.9	0.859
1289.89	0.851
1298.88	0.811
1307.87	0.701
1316.86	0.632
1325.85	0.52
1334.84	0.551
1343.82	0.514
1352.81	0.357
1361.8	0.1048
1370.79	0.087
1379.78	0.169
1388.77	0.3641
1397.76	0.544
1406.75	0.63
1415.74	0.682
1424.72	0.702
1433.71	0.683
1442.7	0.669
1451.69	0.619
1460.68	0.5061
1469.67	0.292
1478.66	0.5392
1487.65	0.6961
1496.63	0.761
1505.62	0.821
1514.61	0.861
1523.6	0.875
1532.59	0.878
1541.58	0.886
1550.57	0.883
1559.56	0.883
1568.54	0.881
1577.53	0.88
1586.52	0.88
1595.51	0.869
1604.5	0.859
1613.49	0.838
1622.48	0.83
1631.47	0.829
1640.46	0.832
1649.44	0.829
1658.43	0.83
1667.42	0.846
1676.41	0.865
1685.4	0.875
1694.39	0.884
1703.38	0.881
1712.37	0.883
1721.35	0.886
1730.34	0.888
1739.33	0.891
1748.32	0.892
1757.31	0.894
1766.3	0.892
1775.29	0.894
1784.28	0.896
1793.26	0.891
1802.25	0.883
1811.24	0.87
1820.23	0.865
1829.22	0.875
1838.21	0.884
1847.2	0.892
1856.19	0.892
1865.18	0.896
1874.16	0.894
1883.15	0.894
1892.14	0.896
1901.13	0.899
1910.12	0.899
1919.11	0.897
1928.1	0.894
1937.09	0.897
1946.07	0.899
1955.06	0.897
1964.05	0.899
1973.04	0.899
1982.03	0.9
1991.02	0.902
2000.01	0.905
2009	0.907
2017.99	0.905
2026.97	0.905
2035.96	0.902
2044.95	0.899
2053.94	0.899
2062.93	0.898
2071.92	0.897
2080.91	0.896
2089.9	0.889
2098.88	0.8835
2107.87	0.878
2116.86	0.883
2125.85	0.888
2134.84	0.891
2143.83	0.894
2152.82	0.893
2161.81	0.891
2170.79	0.894
2179.78	0.894
2188.77	0.891
2197.76	0.891
2206.75	0.891
2215.74	0.891
2224.73	0.892
2233.72	0.891
2242.71	0.891
2251.69	0.886
2260.68	0.8725
2269.67	0.87
2278.66	0.8745
2287.65	0.884
2296.64	0.887
2305.63	0.889
2314.62	0.8885
2323.6	0.886
2332.59	0.883
2341.58	0.88
2350.57	0.877
2359.56	0.875
2368.55	0.871
2377.54	0.867
2386.53	0.87
2395.51	0.873
2404.5	0.876
2413.49	0.878
2422.48	0.8805
2431.47	0.88
2440.46	0.879
2449.45	0.876
2458.44	0.875
2467.43	0.873
2476.41	0.875
2485.4	0.867
2494.39	0.8615
2503.38	0.859
2512.37	0.8525
2521.36	0.848
2530.35	0.8365
2539.34	0.833
2548.32	0.832
2557.31	0.832
2566.3	0.832
2575.29	0.833
2584.28	0.839
2593.27	0.84
2602.26	0.846
2611.25	0.848
2620.23	0.849
2629.22	0.849
2638.21	0.847
2647.2	0.846
2656.19	0.848
2665.18	0.846
2674.17	0.845
2683.16	0.843
2692.15	0.835
2701.13	0.821
2710.12	0.818
2719.11	0.819
2728.1	0.818
2737.09	0.813
2746.08	0.808
2755.07	0.808
2764.06	0.806
2773.04	0.8
2782.03	0.7855
2791.02	0.777
2800.01	0.763
2809	0.744
2817.99	0.7355
2826.98	0.717
2835.97	0.704
2844.95	0.6621
2853.94	0.5785
2862.93	0.4361
2871.92	0.3805
2880.91	0.415
2889.9	0.3955
2898.89	0.3649
2907.88	0.315
2916.87	0.324
2925.85	0.2709
2934.84	0.21
2943.83	0.2245
2952.82	0.1959
2961.81	0.0381
2970.8	0.001
2979.79	0.0166
2988.78	0.2608
2997.76	0.552
3006.75	0.69
3015.74	0.7415
3024.73	0.784
3033.72	0.795
3042.71	0.808
3051.7	0.812
3060.69	0.813
3069.68	0.809
3078.66	0.803
3087.65	0.799
3096.64	0.793
3105.63	0.784
3114.62	0.773
3123.61	0.764
3132.6	0.753
3141.59	0.7295
3150.57	0.71
3159.56	0.681
3168.55	0.661
3177.54	0.6386
3186.53	0.615
3195.52	0.597
3204.51	0.5631
3213.5	0.545
3222.48	0.512
3231.47	0.4835
3240.46	0.45
3249.45	0.4235
3258.44	0.388
3267.43	0.359
3276.42	0.322
3285.41	0.2809
3294.4	0.239
3303.38	0.2086
3312.37	0.18
3321.36	0.1575
3330.35	0.143
3339.34	0.133
3348.33	0.127
3357.32	0.124
3366.31	0.126
3375.29	0.1295
3384.28	0.135
3393.27	0.144
3402.26	0.159
3411.25	0.172
3420.24	0.19
3429.23	0.208
3438.22	0.23
3447.2	0.2455
3456.19	0.266
3465.18	0.3005
3474.17	0.319
3483.16	0.3549
3492.15	0.3801
3501.14	0.4315
3510.13	0.4689
3519.12	0.5281
3528.1	0.587
3537.09	0.6369
3546.08	0.683
3555.07	0.72
3564.06	0.75
3573.05	0.778
3582.04	0.792
3591.03	0.748
3600.01	0.666
3609	0.5626
3617.99	0.5688
3626.98	0.7955
3635.97	0.833
3644.96	0.854
3653.95	0.849
3662.94	0.834
3671.92	0.79
3680.91	0.8275
3689.9	0.87
3698.89	0.8865
3707.88	0.894
3716.87	0.894
3725.86	0.899
3734.85	0.904
3743.84	0.907
3752.82	0.902
3761.81	0.9
3770.8	0.899
3779.79	0.897
3788.78	0.901
