Infrared Spectrum: tert.-Butyl alcohol
Formula: C4 H10 O
CAS: 75-65-0
State: LIQUID (NEAT)
Class: COBLENTZ III
Instrument: PERKIN-ELMER 521 (GRATING)
Instrument parameters: FILTERS AT 3150, 2500, 2000, 1150, 700, 410. GRATING CHANGES: 2000, 630
Path length: CAPILLARY
Resolution: 2
Origin: SOUTHERN RESEARCH INSTITUTE
1/CM	TRANSMITTANCE
250.462	0.7403
259.496	0.7639
268.531	0.7878
277.565	0.8137
286.599	0.8344
295.634	0.8502
304.668	0.8585
313.702	0.8608
322.737	0.8578
331.771	0.8463
340.805	0.8368
349.84	0.8421
358.874	0.8516
367.908	0.8542
376.943	0.8504
385.977	0.8571
395.011	0.843
404.045	0.8337
413.08	0.8158
422.114	0.7758
431.148	0.8126
440.183	0.809
449.217	0.7867
458.251	0.7638
467.286	0.7698
476.32	0.799
485.354	0.8143
494.389	0.8201
503.423	0.8192
512.457	0.8146
521.492	0.8092
530.526	0.8029
539.56	0.795
548.595	0.7866
557.629	0.7748
566.663	0.7621
575.698	0.7477
584.732	0.7331
593.766	0.7193
602.801	0.7063
611.835	0.6973
620.869	0.6908
629.904	0.6893
638.938	0.6892
647.972	0.6903
657.006	0.6943
666.041	0.7135
675.075	0.7313
684.109	0.7405
693.144	0.7518
702.178	0.7633
711.212	0.7741
720.247	0.7825
729.281	0.7844
738.315	0.7081
747.35	0.5023
756.384	0.7918
765.418	0.8128
774.453	0.8269
783.487	0.838
792.521	0.846
801.556	0.8529
810.59	0.8586
819.624	0.8629
828.659	0.8659
837.693	0.8677
846.727	0.8671
855.762	0.8638
864.796	0.857
873.83	0.8412
882.865	0.7971
891.899	0.6165
900.933	0.3125
909.967	0.2354
919.002	0.3086
928.036	0.7006
937.07	0.8081
946.105	0.8358
955.139	0.8525
964.173	0.8642
973.208	0.8677
982.242	0.8674
991.276	0.8579
1000.31	0.832
1009.35	0.7744
1018.38	0.6092
1027.41	0.7982
1036.45	0.8554
1045.48	0.8634
1054.52	0.8662
1063.55	0.8614
1072.59	0.8539
1081.62	0.843
1090.65	0.8289
1099.69	0.8133
1108.72	0.7917
1117.76	0.7515
1126.79	0.7313
1135.83	0.6571
1144.86	0.5364
1153.89	0.4309
1162.93	0.2961
1171.96	0.2281
1181	0.1749
1190.03	0.1627
1199.07	0.1593
1208.1	0.2226
1217.13	0.4523
1226.17	0.4559
1235.2	0.3531
1244.24	0.6599
1253.27	0.7293
1262.31	0.7691
1271.34	0.779
1280.37	0.7793
1289.41	0.7765
1298.44	0.7696
1307.48	0.7608
1316.51	0.7385
1325.55	0.6933
1334.58	0.6427
1343.61	0.5732
1352.65	0.3586
1361.68	0.1625
1370.72	0.2357
1379.75	0.2143
1388.79	0.4069
1397.82	0.5077
1406.86	0.5708
1415.89	0.6485
1424.92	0.6884
1433.96	0.6816
1442.99	0.6724
1452.03	0.6551
1461.06	0.5038
1470.1	0.3486
1479.13	0.5906
1488.16	0.6759
1497.2	0.7529
1506.23	0.7935
1515.27	0.826
1524.3	0.8429
1533.34	0.8509
1542.37	0.8628
1551.4	0.8716
1560.44	0.8761
1569.47	0.8786
1578.51	0.88
1587.54	0.8837
1596.58	0.8813
1605.61	0.8802
1614.64	0.8751
1623.68	0.8676
1632.71	0.8603
1641.75	0.8524
1650.78	0.8427
1659.82	0.8479
1668.85	0.8598
1677.88	0.8749
1686.92	0.8826
1695.95	0.8853
1704.99	0.8876
1714.02	0.8894
1723.06	0.8911
1732.09	0.8927
1741.13	0.8944
1750.16	0.896
1759.19	0.8977
1768.23	0.8996
1777.26	0.8996
1786.3	0.8979
1795.33	0.8939
1804.37	0.8857
1813.4	0.8747
1822.43	0.865
1831.47	0.8737
1840.5	0.8931
1849.54	0.8949
1858.57	0.8956
1867.61	0.8962
1876.64	0.8969
1885.67	0.8978
1894.71	0.8986
1903.74	0.8985
1912.78	0.8984
1921.81	0.8978
1930.85	0.897
1939.88	0.8926
1948.91	0.8905
1957.95	0.9017
1966.98	0.9045
1976.02	0.9064
1985.05	0.9096
1994.09	0.9119
2003.12	0.9071
2012.15	0.9037
2021.19	0.9045
2030.22	0.9048
2039.26	0.9048
2048.29	0.9046
2057.33	0.9044
2066.36	0.902
2075.39	0.8989
2084.43	0.8952
2093.46	0.8908
2102.5	0.8868
2111.53	0.8886
2120.57	0.8937
2129.6	0.8992
2138.64	0.9012
2147.67	0.9017
2156.7	0.9021
2165.74	0.9026
2174.77	0.9023
2183.81	0.9017
2192.84	0.901
2201.88	0.9008
2210.91	0.9007
2219.94	0.8995
2228.98	0.8977
2238.01	0.8959
2247.05	0.8935
2256.08	0.8899
2265.12	0.8799
2274.15	0.8782
2283.18	0.8848
2292.22	0.89
2301.25	0.888
2310.29	0.8856
2319.32	0.8829
2328.36	0.8783
2337.39	0.8727
2346.42	0.8691
2355.46	0.8658
2364.49	0.8636
2373.53	0.8642
2382.56	0.8659
2391.6	0.8686
2400.63	0.8714
2409.66	0.8748
2418.7	0.8782
2427.73	0.8816
2436.77	0.8835
2445.8	0.8839
2454.84	0.8825
2463.87	0.8788
2472.91	0.8737
2481.94	0.8686
2490.97	0.8647
2500.01	0.8603
2509.04	0.8531
2518.08	0.8417
2527.11	0.8284
2536.15	0.8147
2545.18	0.8062
2554.21	0.8052
2563.25	0.8093
2572.28	0.8125
2581.32	0.8157
2590.35	0.8189
2599.39	0.8236
2608.42	0.8294
2617.45	0.8374
2626.49	0.845
2635.52	0.8447
2644.56	0.841
2653.59	0.8361
2662.63	0.8325
2671.66	0.832
2680.69	0.8325
2689.73	0.829
2698.76	0.8219
2707.8	0.8164
2716.83	0.8169
2725.87	0.816
2734.9	0.8098
2743.93	0.8018
2752.97	0.7932
2762	0.7851
2771.04	0.7782
2780.07	0.7706
2789.11	0.7626
2798.14	0.7542
2807.18	0.7447
2816.21	0.7349
2825.24	0.7239
2834.28	0.7076
2843.31	0.6788
2852.35	0.5854
2861.38	0.5191
2870.42	0.4394
2879.45	0.4304
2888.48	0.4302
2897.52	0.4093
2906.55	0.377
2915.59	0.3452
2924.62	0.3339
2933.66	0.2997
2942.69	0.2872
2951.72	0.264
2960.76	0.1533
2969.79	0.1214
2978.83	0.1279
2987.86	0.3217
2996.9	0.54
3005.93	0.669
3014.96	0.7136
3024	0.7437
3033.03	0.7696
3042.07	0.7855
3051.1	0.7922
3060.14	0.7934
3069.17	0.7914
3078.2	0.7853
3087.24	0.7771
3096.27	0.7683
3105.31	0.7586
3114.34	0.749
3123.38	0.7429
3132.41	0.7326
3141.44	0.702
3150.48	0.679
3159.51	0.6515
3168.55	0.6176
3177.58	0.5934
3186.62	0.5684
3195.65	0.5411
3204.69	0.5132
3213.72	0.4873
3222.75	0.4513
3231.79	0.4215
3240.82	0.3927
3249.86	0.3633
3258.89	0.3341
3267.93	0.3063
3276.96	0.2781
3285.99	0.2513
3295.03	0.2275
3304.06	0.2071
3313.1	0.1925
3322.13	0.1831
3331.17	0.1755
3340.2	0.1693
3349.23	0.1666
3358.27	0.1653
3367.3	0.166
3376.34	0.1675
3385.37	0.1703
3394.41	0.1733
3403.44	0.1786
3412.47	0.1868
3421.51	0.1975
3430.54	0.2083
3439.58	0.2208
3448.61	0.2388
3457.65	0.2592
3466.68	0.2818
3475.71	0.3133
3484.75	0.3403
3493.78	0.369
3502.82	0.4079
3511.85	0.4504
3520.89	0.4827
3529.92	0.5252
3538.96	0.5669
3547.99	0.6041
3557.02	0.6467
3566.06	0.6968
3575.09	0.7321
3584.13	0.7562
3593.16	0.7772
3602.2	0.7949
3611.23	0.8016
3620.26	0.7907
3629.3	0.7821
3638.33	0.8138
3647.37	0.8462
3656.4	0.853
3665.44	0.8583
3674.47	0.8616
3683.5	0.8621
3692.54	0.8568
3701.57	0.8603
3710.61	0.8731
3719.64	0.877
3728.68	0.8764
3737.71	0.8759
3746.74	0.8745
3755.78	0.8755
3764.81	0.872
3773.85	0.8784
3782.88	0.8804
3791.92	0.8816
3800.95	0.8821
3809.98	0.879
