Infrared Spectrum: TERT-BUTANOL
Formula: C4 H10 O
CAS: 75-65-0
State: GAS (30 mmHg, N2 ADDED, TOTAL PRESSURE 600 mmHg)
Class: COBLENTZ
Instrument: DOW KBr FOREPRISM-GRATING
Instrument parameters: GRATING CHANGED AT 5.0, 7.5, 15.0 MICRON
Sampling: TRANSMISSION
Path length: 5 CM
Resolution: 2
Origin: DOW CHEMICAL COMPANY
1/CM	TRANSMITTANCE
383.75	0.886
393.125	0.886
402.5	0.886
411.875	0.885
421.25	0.88
430.625	0.873
440	0.864
449.375	0.844
458.75	0.825
468.125	0.819
477.5	0.854
486.875	0.886
496.25	0.921
505.625	0.937
515	0.941
524.375	0.944
533.75	0.943
543.125	0.941
552.5	0.943
561.875	0.946
571.25	0.944
580.625	0.949
590	0.95
599.375	0.957
608.75	0.957
618.125	0.963
627.5	0.97
636.875	0.979
646.25	0.985
655.625	0.981
665	0.988
674.375	0.998
683.75	1.005
693.125	1.011
702.5	1.015
711.875	1.017
721.25	1.015
730.625	1.007
740	0.973
749.375	0.959
758.75	0.96
768.125	0.984
777.5	1.014
786.875	1.018
796.25	1.015
805.625	1.011
815	1.008
824.375	1.004
833.75	1.002
843.125	1.004
852.5	1.001
861.875	1
871.25	0.994
880.625	0.982
890	0.96
899.375	0.859
908.75	0.63
918.125	0.466
927.5	0.632
936.875	0.598
946.25	0.893
955.625	0.972
965	0.97
974.375	0.966
983.75	0.963
993.125	0.937
1002.5	0.896
1011.88	0.875
1021.25	0.869
1030.62	0.88
1040	0.896
1049.38	0.92
1058.75	0.94
1068.12	0.937
1077.5	0.934
1086.88	0.936
1096.25	0.924
1105.62	0.911
1115	0.854
1124.38	0.691
1133.75	0.531
1143.12	0.39
1152.5	0.518
1161.88	0.606
1171.25	0.76
1180.62	0.77
1190	0.71
1199.38	0.606
1208.75	0.459
1218.12	0.315
1227.5	0.436
1236.88	0.582
1246.25	0.709
1255.62	0.797
1265	0.835
1274.38	0.859
1283.75	0.867
1293.12	0.869
1302.5	0.853
1311.88	0.795
1321.25	0.722
1330.62	0.626
1340	0.781
1349.38	0.784
1358.75	0.64
1368.12	0.468
1377.5	0.4021
1386.88	0.486
1396.25	0.703
1405.62	0.902
1415	0.947
1424.38	0.956
1433.75	0.95
1443.12	0.937
1452.5	0.896
1461.88	0.851
1471.25	0.796
1480.62	0.841
1490	0.863
1499.38	0.912
1508.75	0.952
1518.12	0.979
1527.5	0.992
1536.88	0.994
1546.25	0.992
1555.62	0.989
1565	1.001
1574.38	0.991
1583.75	0.995
1593.12	1.001
1602.5	1.001
1611.88	1.001
1621.25	1.001
1630.62	1.001
1640	0.992
1649.38	0.986
1658.75	0.985
1668.12	0.973
1677.5	0.984
1686.88	0.979
1696.25	0.96
1705.62	0.989
1715	0.982
1724.38	0.989
1733.75	0.976
1743.12	0.986
1752.5	0.975
1761.88	0.97
1771.25	0.976
1780.62	0.991
1790	0.986
1799.38	0.988
1808.75	0.984
1818.12	0.981
1827.5	0.976
1836.88	0.982
1846.25	0.981
1855.62	0.986
1865	0.989
1874.38	0.992
1883.75	0.991
1893.12	0.992
1902.5	0.989
1911.88	0.988
1921.25	0.988
1930.62	0.988
1940	0.986
1949.38	0.985
1958.75	0.982
1968.12	0.988
1977.5	0.988
1986.88	0.986
1996.25	0.986
2005.62	0.986
2015	0.986
2024.38	0.986
2033.75	0.986
2043.12	0.9851
2052.5	0.985
2061.88	0.985
2071.25	0.985
2080.62	0.985
2090	0.985
2099.38	0.984
2108.75	0.982
2118.12	0.9782
2127.5	0.978
2136.88	0.979
2146.25	0.9834
2155.62	0.985
2165	0.986
2174.38	0.985
2183.75	0.9844
2193.12	0.984
2202.5	0.984
2211.88	0.984
2221.25	0.984
2230.62	0.984
2240	0.984
2249.38	0.983
2258.75	0.982
2268.12	0.977
2277.5	0.973
2286.88	0.972
2296.25	0.9724
2305.62	0.978
2315	0.9768
2324.38	0.9772
2333.75	0.975
2343.12	0.9797
2352.5	0.9834
2361.88	0.9817
2371.25	0.982
2380.62	0.9787
2390	0.978
2399.38	0.978
2408.75	0.978
2418.12	0.976
2427.5	0.978
2436.88	0.978
2446.25	0.978
2455.62	0.978
2465	0.978
2474.38	0.979
2483.75	0.979
2493.12	0.979
2502.5	0.981
2511.88	0.981
2521.25	0.979
2530.62	0.979
2540	0.981
2549.38	0.982
2558.75	0.982
2568.12	0.982
2577.5	0.981
2586.88	0.981
2596.25	0.979
2605.62	0.979
2615	0.9782
2624.38	0.978
2633.75	0.979
2643.12	0.9765
2652.5	0.9735
2661.88	0.973
2671.25	0.976
2680.62	0.976
2690	0.976
2699.38	0.975
2708.75	0.9707
2718.12	0.968
2727.5	0.9638
2736.88	0.963
2746.25	0.9609
2755.62	0.9611
2765	0.9655
2774.38	0.965
2783.75	0.964
2793.12	0.958
2802.5	0.9511
2811.88	0.9426
2821.25	0.9357
2830.62	0.9297
2840	0.921
2849.38	0.9206
2858.75	0.8888
2868.12	0.8068
2877.5	0.7215
2886.88	0.6681
2896.25	0.6471
2905.62	0.6442
2915	0.63
2924.38	0.6276
2933.75	0.5883
2943.12	0.5341
2952.5	0.4587
2961.88	0.3487
2971.25	0.1416
2980.62	0.1355
2990	0.0987
2999.38	0.2641
3008.75	0.5463
3018.12	0.9164
3027.5	0.959
3036.88	0.965
3046.25	0.965
3055.62	0.965
3065	0.965
3074.38	0.962
3083.75	0.963
3093.12	0.9648
3102.5	0.966
3111.88	0.9651
3121.25	0.963
3130.62	0.9603
3140	0.959
3149.38	0.956
3158.75	0.953
3168.12	0.9492
3177.5	0.9462
3186.88	0.946
3196.25	0.949
3205.62	0.952
3215	0.95
3224.38	0.9463
3233.75	0.943
3243.12	0.944
3252.5	0.9512
3261.88	0.9552
3271.25	0.959
3280.62	0.957
3290	0.956
3299.38	0.954
3308.75	0.954
3318.12	0.9565
3327.5	0.959
3336.88	0.96
3346.25	0.959
3355.62	0.957
3365	0.954
3374.38	0.952
3383.75	0.9496
3393.12	0.947
3402.5	0.9467
3411.88	0.946
3421.25	0.946
3430.62	0.9463
3440	0.9475
3449.38	0.95
3458.75	0.952
3468.12	0.953
3477.5	0.953
3486.88	0.953
3496.25	0.953
3505.62	0.953
3515	0.953
3524.38	0.952
3533.75	0.952
3543.12	0.952
3552.5	0.953
3561.88	0.953
3571.25	0.953
3580.62	0.952
3590	0.9471
3599.38	0.9489
3608.75	0.9412
3618.12	0.9312
3627.5	0.8962
3636.88	0.8439
3646.25	0.7402
3655.62	0.8245
3665	0.8639
3674.38	0.9191
3683.75	0.9438
3693.12	0.946
3702.5	0.947
3711.88	0.947
3721.25	0.947
3730.62	0.9463
3740	0.9403
3749.38	0.9367
3758.75	0.944
3768.12	0.946
3777.5	0.946
3786.88	0.944
