Infrared Spectrum: Ethane, 1,1-dichloro-
Formula: C 2 H 4 Cl 2
CAS: 75-34-3
State: gas
Origin: Sadtler Research Labs Under US-EPA Contract
1/CM	ABSORBANCE
450	0.00294647
462	0.0045099
474	0.00276607
486	0.00348766
498	0.0043295
510	0.00396871
522	0.00372818
534	0.00330726
546	0.0045099
558	0.00246541
570	0.00330726
582	0.00402884
594	0.00438964
606	0.00475043
618	0.0126879
630	0.0358988
642	0.0726395
654	0.0821403
666	0.0835233
678	0.184665
690	0.556522
702	0.576967
714	0.425975
726	0.0731806
738	0.0295849
750	0.00631386
762	0.0058328
774	0.00378832
786	0.00366805
798	0.00312686
810	0.00234515
822	0.00288634
834	0.00276607
846	0.00240528
858	0.00420924
870	0.00294647
882	0.00336739
894	0.00384845
906	0.00438964
918	0.00408898
930	0.00384845
942	0.00691518
954	0.0192422
966	0.046482
978	0.0703544
990	0.0770892
1002	0.0457605
1014	0.0164762
1026	0.015033
1038	0.0529763
1050	0.211123
1062	0.243956
1074	0.199338
1086	0.0266385
1098	0.0164762
1110	0.00577267
1122	0.00270594
1134	0.00258568
1146	0.00198436
1158	0.00144317
1170	0.00204449
1182	0.00330726
1194	0.0088394
1206	0.0417316
1218	0.140649
1230	0.220083
1242	0.207936
1254	0.0873718
1266	0.0559228
1278	0.0604327
1290	0.051473
1302	0.0219482
1314	0.00956099
1326	0.00859888
1338	0.0117257
1350	0.0147323
1362	0.0234515
1374	0.0461814
1386	0.05923
1398	0.0525554
1410	0.0202044
1422	0.0186409
1434	0.0394466
1446	0.0616954
1458	0.0367407
1470	0.0244136
1482	0.00992178
1494	0.00499096
1506	0.00511122
1518	0.0028262
1530	0.00162356
1542	0.0016837
1554	0.00324713
1566	0.00156343
1578	0.00120264
1590	0.00204449
1602	0.00204449
1614	0.00246541
1626	0.00156343
1638	0.00120264
1650	0.00222488
1662	0.00264581
1674	0.00354779
1686	0.00324713
1698	0.00378832
1710	0.00354779
1722	0.00228502
1734	0.00264581
1746	0.00258568
1758	0.00204449
1770	0.00264581
1782	0.00186409
1794	0.00198436
1806	0.00192422
1818	0.00138304
1830	0.0015033
1842	0.00216475
1854	0.00138304
1866	0.00198436
1878	0.00144317
1890	0.00162356
1902	0.0013229
1914	0.00186409
1926	0.00186409
1938	0.00240528
1950	0.00228502
1962	0.00234515
1974	0.00228502
1986	0.00180396
1998	0.00186409
2010	0.00126277
2022	0.0013229
2034	0.00180396
2046	0.00222488
2058	0.00222488
2070	0.00228502
2082	0.00276607
2094	0.00222488
2106	0.0016837
2118	0.00126277
2130	0.0016837
2142	0.00228502
2154	0.0016837
2166	0.00222488
2178	0.00222488
2190	0.00174383
2202	0.00156343
2214	0.00162356
2226	0.00180396
2238	0.00216475
2250	0.0016837
2262	0.00186409
2274	0.00204449
2286	0.00198436
2298	0.00162356
2310	0.00234515
2322	0.00306673
2334	0.00306673
2346	0.00156343
2358	0.00402884
2370	0.000180396
2382	0.00120264
2394	0.00192422
2406	0.00198436
2418	0.00192422
2430	0.00246541
2442	0.00348766
2454	0.00438964
2466	0.00487069
2478	0.00378832
2490	0.00222488
2502	0.00192422
2514	0.00228502
2526	0.00198436
2538	0.00126277
2550	0.00162356
2562	0.00174383
2574	0.00180396
2586	0.000781716
2598	0.00030066
2610	0.00030066
2622	0.00030066
2634	0.00114251
2646	0.000360792
2658	0.0015033
2670	0.00162356
2682	0.00162356
2694	0.00114251
2706	0.000120264
2718	0.00102224
2730	0.00102224
2742	0.0015033
2754	0.0015033
2766	0.00102224
2778	0.000541188
2790	0.00102224
2802	0.00270594
2814	0.00324713
2826	0.00354779
2838	0.00306673
2850	0.003187
2862	0.0073361
2874	0.0112447
2886	0.0129284
2898	0.00938059
2910	0.00781716
2922	0.0144918
2934	0.033253
2946	0.0292242
2958	0.0351171
2970	0.0159951
2982	0.0448585
2994	0.0668067
3006	0.0962112
3018	0.0740826
3030	0.0289235
3042	0.010944
3054	0.00192422
3066	0.000360792
3078	0.000962112
3090	0.000841848
3102	0.000962112
3114	0.00144317
3126	0.00090198
3138	0.00060132
3150	0.000781716
3162	0.00138304
3174	0.00090198
3186	0.000841848
3198	0.00144317
3210	0.00180396
3222	0.00234515
3234	0.00234515
3246	0.00276607
3258	0.00348766
3270	0.00228502
3282	0.00228502
3294	0.00186409
3306	0.00378832
3318	0.00312686
3330	0.00324713
3342	0.00192422
3354	0.00180396
3366	0.00144317
3378	0.0016837
3390	0.00312686
3402	0.00288634
3414	0.0028262
3426	0.00312686
3438	0.00162356
3450	0.00210462
3462	0.00156343
3474	0.00138304
3486	0.00210462
3498	0.00270594
3510	0.00114251
3522	0.00108238
3534	0.00108238
3546	0.00198436
3558	0.0015033
3570	0.00204449
3582	0.00240528
3594	0.00138304
3606	0.00204449
3618	0.0016837
3630	0.0016837
3642	0.00234515
3654	0.000962112
3666	0.00354779
3678	0.0015033
3690	0.00342752
3702	0.00330726
3714	0.00312686
3726	0.003187
3738	0.00222488
3750	0.00180396
3762	0.00198436
3774	0.00270594
3786	0.0028262
3798	0.00366805
3810	0.00234515
3822	0.00192422
3834	0.00222488
3846	0.00342752
3858	0.00426937
3870	0.00288634
3882	0.0030066
3894	0.00312686
3906	0.00216475
3918	0.00234515
3930	0.00294647
3942	0.00258568
3954	0.00192422
3966	0.0015033
