Infrared Spectrum: 1,1-DICHLOROETHANE
Formula: C2 H4 Cl2
CAS: 75-34-3
Class: COBLENTZ
Instrument: Not specified, most likely a prism, grating, or hybrid spectrometer.
Sampling: TRANSMISSION
Path length: 0.0025 CM
Resolution: 4
Origin: W.T. BOLLETER
MICROMETERS	TRANSMITTANCE
14.523	0.008
14.5928	0.008
14.6625	0.008
14.7323	0.008
14.8021	0.008
14.8718	0.008
14.9416	0.008
15.0114	0.008
15.0811	0.008
15.1509	0.01
15.2207	0.008
15.2904	0.01
15.3602	0.01
15.43	0.008
15.4997	0.008
15.5695	0.008
15.6393	0.008
15.709	0.008
15.7788	0.014
15.8486	0.024
15.9183	0.049
15.9881	0.106
16.0579	0.215
16.1276	0.3
16.1974	0.37
16.2672	0.43
16.3369	0.473
16.4067	0.5
16.4765	0.516
16.5463	0.533
16.616	0.539
16.6858	0.542
16.7556	0.549
16.8253	0.564
16.8951	0.592
16.9649	0.626
17.0346	0.667
17.1044	0.699
17.1742	0.724
17.2439	0.761
17.3137	0.788
17.3835	0.804
17.4532	0.829
17.523	0.845
17.5928	0.854
17.6625	0.859
17.7323	0.868
17.8021	0.879
17.8718	0.889
17.9416	0.898
18.0114	0.903
18.0811	0.909
18.1509	0.912
18.2207	0.914
18.2904	0.919
18.3602	0.921
18.43	0.921
18.4997	0.921
18.5695	0.919
18.6393	0.918
18.709	0.912
18.7788	0.909
18.8486	0.902
18.9183	0.898
18.9881	0.895
19.0579	0.896
19.1276	0.898
19.1974	0.902
19.2672	0.905
19.3369	0.907
19.4067	0.907
19.4765	0.907
19.5462	0.903
19.616	0.9
19.6858	0.898
19.7555	0.893
19.8253	0.887
19.8951	0.88
19.9648	0.875
20.0346	0.871
20.1044	0.866
20.1741	0.864
20.2439	0.862
20.3137	0.859
20.3834	0.857
20.4532	0.854
20.523	0.852
20.5928	0.848
20.6625	0.841
20.7323	0.838
20.8021	0.832
20.8718	0.823
20.9416	0.822
21.0114	0.818
21.0811	0.814
21.1509	0.811
21.2207	0.807
21.2904	0.804
21.3602	0.802
21.43	0.8
21.4997	0.798
21.5695	0.795
21.6393	0.786
21.709	0.784
21.7788	0.781
21.8486	0.775
21.9183	0.766
21.9881	0.761
22.0579	0.754
22.1276	0.752
22.1974	0.749
22.2672	0.743
22.3369	0.741
22.4067	0.736
22.4765	0.731
22.5462	0.725
22.616	0.724
22.6858	0.713
22.7555	0.709
22.8253	0.704
22.8951	0.702
22.9648	0.699
23.0346	0.685
23.1044	0.676
23.1741	0.663
23.2439	0.651
23.3137	0.64
23.3834	0.626
23.4532	0.601
23.523	0.576
23.5927	0.549
23.6625	0.524
23.7323	0.5
23.802	0.467
23.8718	0.425
23.9416	0.387
24.0113	0.352
24.0811	0.302
24.1509	0.254
24.2206	0.209
24.2904	0.154
24.3602	0.108
24.43	0.08
24.4997	0.048
24.5695	0.033
24.6393	0.026
24.709	0.026
24.7788	0.026
24.8486	0.028
24.9183	0.039
24.9881	0.053
25.0579	0.099
25.1276	0.153
25.1974	0.211
25.2672	0.277
25.3369	0.336
25.4067	0.402
25.4765	0.448
25.5462	0.503
25.616	0.537
25.6858	0.565
25.7555	0.604
25.8253	0.637
25.8951	0.656
25.9648	0.679
26.0346	0.697
26.1044	0.708
26.1741	0.724
26.2439	0.745
26.3137	0.752
26.3834	0.763
26.4532	0.775
26.523	0.782
26.5927	0.795
26.6625	0.798
26.7323	0.802
26.802	0.809
26.8718	0.813
26.9416	0.814
27.0113	0.822
27.0811	0.829
27.1509	0.834
27.2206	0.841
27.2904	0.848
27.3602	0.854
27.4299	0.861
27.4997	0.868
27.5695	0.875
27.6392	0.884
27.709	0.895
27.7788	0.898
27.8485	0.898
27.9183	0.902
27.9881	0.907
28.0578	0.911
28.1276	0.912
28.1974	0.911
28.2672	0.911
28.3369	0.912
28.4067	0.911
28.4765	0.909
28.5462	0.907
28.616	0.905
28.6858	0.9
28.7555	0.896
28.8253	0.891
28.8951	0.889
28.9648	0.889
29.0346	0.882
29.1044	0.879
29.1741	0.87
29.2439	0.864
29.3137	0.861
29.3834	0.859
29.4532	0.857
29.523	0.857
29.5927	0.854
29.6625	0.852
29.7323	0.848
29.802	0.846
29.8718	0.836
29.9416	0.825
30.0113	0.813
30.0811	0.806
30.1509	0.791
30.2206	0.779
30.2904	0.765
30.3602	0.758
30.4299	0.731
30.4997	0.699
30.5695	0.66
30.6392	0.626
30.709	0.583
30.7788	0.542
30.8485	0.501
30.9183	0.453
30.9881	0.403
31.0578	0.334
31.1276	0.297
31.1974	0.249
31.2671	0.215
31.3369	0.183
31.4067	0.163
31.4764	0.154
31.5462	0.154
31.616	0.167
31.6857	0.199
31.7555	0.229
31.8253	0.266
31.895	0.309
31.9648	0.352
32.0346	0.396
32.1043	0.443
32.1741	0.471
32.2439	0.503
32.3137	0.537
32.3834	0.556
32.4532	0.571
32.523	0.59
32.5927	0.61
32.6625	0.629
32.7323	0.647
32.802	0.656
32.8718	0.677
32.9416	0.685
33.0113	0.686
33.0811	0.685
33.1509	0.679
33.2206	0.677
33.2904	0.674
33.3602	0.677
33.4299	0.692
33.4997	0.699
33.5695	0.702
33.6392	0.704
33.709	0.708
33.7788	0.711
33.8485	0.713
33.9183	0.713
33.9881	0.713
34.0578	0.709
34.1276	0.708
34.1974	0.701
34.2671	0.699
34.3369	0.701
34.4067	0.692
34.4764	0.686
34.5462	0.672
34.616	0.667
34.6857	0.653
34.7555	0.638
34.8253	0.629
34.895	0.617
34.9648	0.608
35.0346	0.597
35.1043	0.578
35.1741	0.572
35.2439	0.564
35.3136	0.542
35.3834	0.53
35.4532	0.516
35.5229	0.503
35.5927	0.487
35.6625	0.473
35.7322	0.448
35.802	0.416
35.8718	0.398
35.9415	0.37
36.0113	0.35
36.0811	0.314
36.1509	0.3
36.2206	0.282
36.2904	0.27
36.3602	0.259
36.4299	0.256
36.4997	0.25
36.5695	0.245
36.6392	0.24
36.709	0.238
36.7788	0.238
36.8485	0.24
36.9183	0.24
36.9881	0.241
37.0578	0.252
37.1276	0.265
37.1974	0.27
37.2671	0.284
37.3369	0.302
37.4067	0.318
37.4764	0.332
37.5462	0.345
37.616	0.352
37.6857	0.361
37.7555	0.362
37.8253	0.373
37.895	0.379
37.9648	0.386
