Infrared Spectrum: METHANAMINE, N-METHYL-
Formula: C2 H7 N
CAS: 124-40-3
State: GAS (16 mmHg, N2 ADDED, TOTAL PRESSURE 600 mmHg)
Class: COBLENTZ
Instrument: BECKMAN IR-9 (GRATING)
Instrument parameters: ORDER CHANGES: 670, 1200, 2000 CM^-^1
Sampling: TRANSMISSION
Path length: 10 CM CELL
Resolution: 2
Origin: DOW CHEMICAL COMPANY
1/CM	TRANSMITTANCE
200.326	0.011
210.207	0.011
220.087	0.011
229.968	0.011
239.848	0.011
249.729	0.009
259.61	0.011
269.49	0.011
279.371	0.016
289.251	0.011
299.132	0.016
309.013	0.028
318.893	0.039
328.774	0.058
338.655	0.0969
348.535	0.146
358.416	0.212
368.296	0.2799
378.177	0.338
388.058	0.4
397.938	0.462
407.819	0.5389
417.699	0.609
427.58	0.676
437.461	0.729
447.341	0.772
457.222	0.806
467.102	0.832
476.983	0.853
486.864	0.872
496.744	0.874
506.625	0.89
516.505	0.921
526.386	0.913
536.267	0.909
546.147	0.922
556.028	0.932
565.909	0.921
575.789	0.913
585.67	0.919
595.55	0.921
605.431	0.913
615.312	0.9
625.192	0.889
635.073	0.883
644.953	0.875
654.834	0.864
664.715	0.8231
674.595	0.761
684.476	0.671
694.356	0.56
704.237	0.4361
714.118	0.336
723.998	0.266
733.879	0.266
743.76	0.287
753.64	0.312
763.521	0.4129
773.401	0.5499
783.282	0.667
793.163	0.78
803.043	0.8749
812.924	0.921
822.804	0.949
832.685	0.958
842.566	0.969
852.446	0.966
862.327	0.962
872.207	0.953
882.088	0.949
891.969	0.934
901.849	0.919
911.73	0.9
921.61	0.883
931.491	0.9
941.372	0.879
951.252	0.9
961.133	0.924
971.014	0.924
980.894	0.953
990.775	0.949
1000.66	0.896
1010.54	0.808
1020.42	0.806
1030.3	0.81
1040.18	0.781
1050.06	0.821
1059.94	0.909
1069.82	0.928
1079.7	0.919
1089.58	0.928
1099.46	0.926
1109.34	0.907
1119.22	0.859
1129.1	0.7511
1138.98	0.592
1148.86	0.432
1158.75	0.4071
1168.63	0.4391
1178.51	0.511
1188.39	0.8121
1198.27	0.907
1208.15	0.928
1218.03	0.934
1227.91	0.943
1237.79	0.951
1247.67	0.953
1257.55	0.958
1267.43	0.958
1277.31	0.958
1287.19	0.958
1297.07	0.958
1306.95	0.953
1316.83	0.953
1326.72	0.953
1336.6	0.949
1346.48	0.943
1356.36	0.93
1366.24	0.915
1376.12	0.911
1386	0.89
1395.88	0.883
1405.76	0.875
1415.64	0.86
1425.52	0.812
1435.4	0.757
1445.28	0.682
1455.16	0.6101
1465.04	0.562
1474.92	0.535
1484.81	0.629
1494.69	0.678
1504.57	0.725
1514.45	0.815
1524.33	0.887
1534.21	0.915
1544.09	0.93
1553.97	0.934
1563.85	0.941
1573.73	0.947
1583.61	0.941
1593.49	0.941
1603.37	0.941
1613.25	0.937
1623.13	0.932
1633.01	0.934
1642.89	0.928
1652.78	0.939
1662.66	0.932
1672.54	0.939
1682.42	0.941
1692.3	0.945
1702.18	0.953
1712.06	0.951
1721.94	0.951
1731.82	0.958
1741.7	0.954
1751.58	0.964
1761.46	0.962
1771.34	0.962
1781.22	0.958
1791.1	0.96
1800.98	0.954
1810.87	0.953
1820.75	0.954
1830.63	0.954
1840.51	0.953
1850.39	0.951
1860.27	0.949
1870.15	0.943
1880.03	0.936
1889.91	0.936
1899.79	0.939
1909.67	0.941
1919.55	0.951
1929.43	0.954
1939.31	0.958
1949.19	0.956
1959.07	0.954
1968.96	0.954
1978.84	0.953
1988.72	0.949
1998.6	0.945
2008.48	0.9581
2018.36	0.962
2028.24	0.958
2038.12	0.9567
2048	0.9506
2057.88	0.9435
2067.76	0.9376
2077.64	0.93
2087.52	0.93
2097.4	0.9369
2107.28	0.9459
2117.16	0.953
2127.04	0.956
2136.93	0.956
2146.81	0.956
2156.69	0.956
2166.57	0.954
2176.45	0.954
2186.33	0.954
2196.21	0.954
2206.09	0.954
2215.97	0.954
2225.85	0.954
2235.73	0.954
2245.61	0.954
2255.49	0.954
2265.37	0.953
2275.25	0.953
2285.13	0.953
2295.02	0.953
2304.9	0.954
2314.78	0.9556
2324.66	0.96
2334.54	0.962
2344.42	0.962
2354.3	0.962
2364.18	0.958
2374.06	0.9529
2383.94	0.949
2393.82	0.939
2403.7	0.939
2413.58	0.941
2423.46	0.941
2433.34	0.941
2443.22	0.943
2453.1	0.947
2462.99	0.9452
2472.87	0.9401
2482.75	0.936
2492.63	0.932
2502.51	0.934
2512.39	0.9308
2522.27	0.9283
2532.15	0.932
2542.03	0.9351
2551.91	0.932
2561.79	0.93
2571.67	0.928
2581.55	0.924
2591.43	0.922
2601.31	0.9215
2611.19	0.919
2621.08	0.919
2630.96	0.922
2640.84	0.9197
2650.72	0.9163
2660.6	0.9061
2670.48	0.8955
2680.36	0.8904
2690.24	0.881
2700.12	0.879
2710	0.8732
2719.88	0.8642
2729.76	0.8455
2739.64	0.8243
2749.52	0.7542
2759.4	0.6832
2769.28	0.4889
2779.17	0.2772
2789.05	0.2136
2798.93	0.1701
2808.81	0.137
2818.69	0.1923
2828.57	0.24
2838.45	0.2415
2848.33	0.281
2858.21	0.2461
2868.09	0.2965
2877.97	0.3246
2887.85	0.3397
2897.73	0.3305
2907.61	0.285
2917.49	0.3056
2927.37	0.3356
2937.25	0.2804
2947.14	0.2196
2957.02	0.1911
2966.9	0.1395
2976.78	0.2122
2986.66	0.2871
2996.54	0.3238
3006.42	0.5349
3016.3	0.7013
3026.18	0.8071
3036.06	0.8568
3045.94	0.8873
3055.82	0.8966
3065.7	0.902
3075.58	0.906
3085.46	0.902
3095.34	0.902
3105.23	0.9
3115.11	0.8969
3124.99	0.8982
3134.87	0.9007
3144.75	0.9
3154.63	0.8985
3164.51	0.8935
3174.39	0.892
3184.27	0.8927
3194.15	0.894
3204.03	0.896
3213.91	0.898
3223.79	0.901
3233.67	0.909
3243.55	0.911
3253.43	0.911
3263.31	0.9164
3273.2	0.917
3283.08	0.917
3292.96	0.917
3302.84	0.9207
3312.72	0.921
3322.6	0.9172
3332.48	0.915
3342.36	0.911
3352.24	0.911
3362.12	0.907
3372	0.907
3381.88	0.907
3391.76	0.909
3401.64	0.909
3411.52	0.9106
3421.4	0.911
3431.29	0.911
3441.17	0.9118
3451.05	0.915
3460.93	0.917
3470.81	0.919
3480.69	0.919
3490.57	0.917
3500.45	0.917
3510.33	0.919
3520.21	0.917
3530.09	0.915
3539.97	0.9166
3549.85	0.921
3559.73	0.922
3569.61	0.919
3579.49	0.919
3589.38	0.921
3599.26	0.922
3609.14	0.922
3619.02	0.924
3628.9	0.926
3638.78	0.926
3648.66	0.93
3658.54	0.9294
3668.42	0.922
3678.3	0.9283
3688.18	0.9262
3698.06	0.926
3707.94	0.926
3717.82	0.926
3727.7	0.926
3737.58	0.928
3747.46	0.9263
3757.35	0.928
3767.23	0.9235
3777.11	0.9236
3786.99	0.9253
3796.87	0.9223
3806.75	0.926
3816.63	0.924
3826.51	0.9215
3836.39	0.921
3846.27	0.926
3856.15	0.9219
3866.03	0.919
3875.91	0.9212
3885.79	0.9213
3895.67	0.919
3905.55	0.917
3915.44	0.9163
3925.32	0.913
3935.2	0.9101
3945.08	0.906
3954.96	0.905
3964.84	0.9041
3974.72	0.906
3984.6	0.907
3994.48	0.904
