Infrared Spectrum: Methanamine, N-methyl-
Formula: C 2 H 7 N
CAS: 124-40-3
State: gas
Origin: Sadtler Research Labs Under US-EPA Contract
1/CM	ABSORBANCE
450	0.00527814
462	0.0054457
474	0.0008378
486	0.00385388
498	0.00661862
510	0.00192694
522	0.00444034
534	0.00737264
546	0.00695374
558	0.00720508
570	0.0113103
582	0.0170073
594	0.0222855
606	0.0311662
618	0.0469168
630	0.0594
642	0.0857069
654	0.123911
666	0.168146
678	0.243465
690	0.322385
702	0.390499
714	0.436661
726	0.427864
738	0.391336
750	0.353635
762	0.258461
774	0.174598
786	0.114779
798	0.0717157
810	0.0413035
822	0.0271447
834	0.0196883
846	0.01751
858	0.0170911
870	0.0225368
882	0.0284014
894	0.036947
906	0.0428954
918	0.0429791
930	0.0374497
942	0.0394604
954	0.0271447
966	0.0193532
978	0.0162533
990	0.0270609
1002	0.0600703
1014	0.0714643
1026	0.0768263
1038	0.0760722
1050	0.0710454
1062	0.0332607
1074	0.0195207
1086	0.0197721
1098	0.030077
1110	0.0622485
1122	0.131786
1134	0.243213
1146	0.305629
1158	0.324396
1170	0.33445
1182	0.152647
1194	0.0420576
1206	0.0205261
1218	0.0135724
1230	0.00804288
1242	0.004189
1254	0.00360254
1266	0.0037701
1278	0.00360254
1290	0.004189
1302	0.0033512
1314	0.00444034
1326	0.00477546
1338	0.00636728
1350	0.0067024
1362	0.0108914
1374	0.0159182
1386	0.0254691
1398	0.0338471
1410	0.0477546
1422	0.083026
1434	0.114527
1446	0.169571
1458	0.234081
1470	0.236092
1482	0.171917
1494	0.142426
1506	0.111763
1518	0.0633377
1530	0.0361092
1542	0.0259718
1554	0.0163371
1566	0.0111427
1578	0.0087969
1590	0.00762398
1602	0.00762398
1614	0.00829422
1626	0.00996982
1638	0.0103049
1650	0.0113103
1662	0.0092158
1674	0.0102212
1686	0.00904824
1698	0.008378
1710	0.00511058
1722	0.00477546
1734	0.00569704
1746	0.00351876
1758	0.00368632
1770	0.00444034
1782	0.00402144
1794	0.00519436
1806	0.00519436
1818	0.00619972
1830	0.00720508
1842	0.00804288
1854	0.00846178
1866	0.00988604
1878	0.00980226
1890	0.00896446
1902	0.00745642
1914	0.0058646
1926	0.00326742
1938	0.00268096
1950	0.0025134
1962	0.00201072
1974	0.00184316
1986	0.00175938
1998	0.00226206
2010	0.00268096
2022	0.004189
2034	0.00603216
2046	0.00871312
2058	0.011059
2070	0.0122319
2082	0.0112265
2094	0.00888068
2106	0.00561326
2118	0.00410522
2130	0.00301608
2142	0.00242962
2154	0.00234584
2166	0.0025134
2178	0.00234584
2190	0.00217828
2202	0.00226206
2214	0.00217828
2226	0.00217828
2238	0.00242962
2250	0.00184316
2262	0.00226206
2274	0.0020945
2286	0.00134048
2298	0.0008378
2310	0
2322	0.00276474
2334	0.004189
2346	0.00360254
2358	0.0046079
2370	0.00444034
2382	0.0050268
2394	0.00678618
2406	0.00636728
2418	0.00469168
2430	0.00435656
2442	0.00444034
2454	0.00494302
2466	0.00645106
2478	0.00846178
2490	0.00929958
2502	0.00946714
2514	0.0104725
2526	0.0103887
2538	0.0096347
2550	0.0108076
2562	0.0117292
2574	0.0132372
2586	0.0139913
2598	0.0142426
2610	0.0150804
2622	0.0153317
2634	0.0161695
2646	0.0191856
2658	0.0247151
2670	0.0280663
2682	0.0315851
2694	0.036193
2706	0.0413873
2718	0.0542894
2730	0.0799261
2742	0.126173
2754	0.213471
2766	0.388488
2778	0.604138
2790	0.738269
2802	0.738437
2814	0.826909
2826	0.692358
2838	0.62902
2850	0.593414
2862	0.638822
2874	0.571044
2886	0.557053
2898	0.576239
2910	0.611594
2922	0.577328
2934	0.677194
2946	0.736678
2958	0.804539
2970	0.776892
2982	0.627093
2994	0.48961
3006	0.284852
3018	0.139996
3030	0.0820206
3042	0.054457
3054	0.0398793
3066	0.0317526
3078	0.0275636
3090	0.0249664
3102	0.022453
3114	0.0211963
3126	0.0196045
3138	0.0175938
3150	0.0171749
3162	0.0179289
3174	0.0172587
3186	0.0155831
3198	0.014075
3210	0.0113941
3222	0.00955092
3234	0.00703752
3246	0.00536192
3258	0.00410522
3270	0.0029323
3282	0.0029323
3294	0.00276474
3306	0.00175938
3318	0.00226206
3330	0.00318364
3342	0.00410522
3354	0.00552948
3366	0.00569704
3378	0.00578082
3390	0.00477546
3402	0.0046079
3414	0.00318364
3426	0.00268096
3438	0.00226206
3450	0.0020945
3462	0.0020945
3474	0.00150804
3486	0.00159182
3498	0.00226206
3510	0.00234584
3522	0.00234584
3534	0.00309986
3546	0.00175938
3558	0.00108914
3570	0.00226206
3582	0.00284852
3594	0.00159182
3606	0.00276474
3618	0.0012567
3630	0.00217828
3642	0.00159182
3654	0.00192694
3666	0.00276474
3678	0.00058646
3690	0.00201072
3702	0.00259718
3714	0.00234584
3726	0.00175938
3738	0.00301608
3750	0.00100536
3762	0.00092158
3774	0.00033512
3786	0
3798	0
3810	0.0012567
3822	0.00025134
3834	0.00217828
3846	0
3858	0.00016756
3870	0.00217828
3882	0.00058646
3894	0.0004189
3906	0.00092158
3918	0.00067024
3930	0.004189
3942	0.00268096
3954	0.00326742
3966	0.0020945
