Infrared Spectrum: METHANAMINE, N-METHYL-
Formula: C2 H7 N
CAS: 124-40-3
State: GAS (16 mmHg DILUTED TO A TOTAL PRESSURE OF 600 mmHg WITH N2)
Class: COBLENTZ
Instrument: BECKMAN
Sampling: TRANSMISSION
Path length: 10 CM CELL
Resolution: 4
Origin: DOW CHEMICAL COMPANY
1/CM	TRANSMITTANCE
203.479	0.015
213.222	0.014
222.964	0.014
232.707	0.014
242.449	0.015
252.192	0.014
261.934	0.014
271.677	0.014
281.419	0.019
291.162	0.014
300.904	0.018
310.647	0.031
320.389	0.041
330.132	0.06
339.874	0.091
349.617	0.146
359.36	0.207
369.102	0.269
378.845	0.339
388.587	0.404
398.33	0.458
408.072	0.528
417.815	0.602
427.557	0.672
437.3	0.724
447.042	0.765
456.785	0.8
466.527	0.826
476.27	0.851
486.012	0.867
495.755	0.878
505.498	0.88
515.24	0.911
524.983	0.92
534.725	0.91
544.468	0.914
554.21	0.932
563.953	0.927
573.695	0.915
583.438	0.914
593.18	0.922
602.923	0.918
612.665	0.908
622.408	0.896
632.15	0.888
641.893	0.882
651.636	0.87
661.378	0.854
671.121	0.799
680.863	0.721
690.606	0.613
700.348	0.471
710.091	0.378
719.833	0.301
729.576	0.264
739.318	0.275
749.061	0.279
758.803	0.375
768.546	0.5
778.288	0.626
788.031	0.744
797.774	0.836
807.516	0.901
817.259	0.935
827.001	0.955
836.744	0.968
846.486	0.97
856.229	0.966
865.971	0.961
875.714	0.954
885.456	0.946
895.199	0.93
904.941	0.913
914.684	0.892
924.426	0.888
934.169	0.891
943.912	0.886
953.654	0.911
963.397	0.928
973.139	0.939
982.882	0.955
992.624	0.944
1002.37	0.887
1012.11	0.801
1021.85	0.804
1031.59	0.821
1041.34	0.781
1051.08	0.831
1060.82	0.909
1070.56	0.93
1080.31	0.92
1090.05	0.928
1099.79	0.928
1109.53	0.908
1119.28	0.858
1129.02	0.743
1138.76	0.589
1148.5	0.431
1158.25	0.392
1167.99	0.454
1177.73	0.505
1187.47	0.791
1197.22	0.905
1206.96	0.926
1216.7	0.936
1226.45	0.943
1236.19	0.95
1245.93	0.954
1255.67	0.958
1265.42	0.959
1275.16	0.959
1284.9	0.959
1294.64	0.959
1304.39	0.958
1314.13	0.955
1323.87	0.954
1333.61	0.95
1343.36	0.945
1353.1	0.933
1362.84	0.92
1372.58	0.913
1382.33	0.9
1392.07	0.884
1401.81	0.88
1411.55	0.871
1421.3	0.84
1431.04	0.772
1440.78	0.74
1450.52	0.66
1460.27	0.577
1470.01	0.481
1479.75	0.598
1489.49	0.626
1499.24	0.694
1508.98	0.766
1518.72	0.854
1528.46	0.9
1538.21	0.924
1547.95	0.928
1557.69	0.939
1567.43	0.941
1577.18	0.945
1586.92	0.941
1596.66	0.94
1606.4	0.94
1616.15	0.936
1625.89	0.931
1635.63	0.933
1645.37	0.928
1655.12	0.94
1664.86	0.931
1674.6	0.939
1684.34	0.943
1694.09	0.943
1703.83	0.953
1713.57	0.952
1723.31	0.952
1733.06	0.955
1742.8	0.957
1752.54	0.963
1762.28	0.963
1772.03	0.962
1781.77	0.958
1791.51	0.957
1801.25	0.957
1811	0.952
1820.74	0.953
1830.48	0.958
1840.22	0.952
1849.97	0.953
1859.71	0.949
1869.45	0.945
1879.19	0.94
1888.94	0.936
1898.68	0.937
1908.42	0.939
1918.16	0.945
1927.91	0.954
1937.65	0.958
1947.39	0.959
1957.14	0.955
1966.88	0.954
1976.62	0.953
1986.36	0.952
1996.11	0.945
2005.85	0.952
2015.59	0.962
2025.33	0.962
2035.08	0.9589
2044.82	0.954
2054.56	0.9478
2064.3	0.9399
2074.05	0.933
2083.79	0.93
2093.53	0.9335
2103.27	0.9414
2113.02	0.9492
2122.76	0.954
2132.5	0.957
2142.24	0.957
2151.99	0.957
2161.73	0.957
2171.47	0.955
2181.21	0.955
2190.96	0.955
2200.7	0.954
2210.44	0.955
2220.18	0.957
2229.93	0.955
2239.67	0.955
2249.41	0.957
2259.15	0.957
2268.9	0.957
2278.64	0.955
2288.38	0.954
2298.12	0.953
2307.87	0.953
2317.61	0.9576
2327.35	0.959
2337.09	0.962
2346.84	0.963
2356.58	0.961
2366.32	0.958
2376.06	0.9533
2385.81	0.9453
2395.55	0.94
2405.29	0.939
2415.03	0.94
2424.78	0.9402
2434.52	0.94
2444.26	0.944
2454	0.945
2463.75	0.9442
2473.49	0.94
2483.23	0.937
2492.97	0.935
2502.72	0.933
2512.46	0.931
2522.2	0.927
2531.94	0.9319
2541.69	0.936
2551.43	0.932
2561.17	0.931
2570.91	0.928
2580.66	0.924
2590.4	0.922
2600.14	0.922
2609.88	0.9199
2619.63	0.92
2629.37	0.92
2639.11	0.92
2648.85	0.9187
2658.6	0.9098
2668.34	0.8968
2678.08	0.8928
2687.83	0.883
2697.57	0.879
2707.31	0.8757
2717.05	0.869
2726.8	0.8548
2736.54	0.8298
2746.28	0.7777
2756.02	0.6904
2765.77	0.5524
2775.51	0.3496
2785.25	0.222
2794.99	0.156
2804.74	0.1583
2814.48	0.1545
2824.22	0.233
2833.96	0.241
2843.71	0.255
2853.45	0.2712
2863.19	0.255
2872.93	0.3195
2882.68	0.3213
2892.42	0.338
2902.16	0.3251
2911.9	0.2866
2921.65	0.3152
2931.39	0.3274
2941.13	0.2758
2950.87	0.2157
2960.62	0.1829
2970.36	0.1417
2980.1	0.2192
2989.84	0.2821
2999.59	0.4092
3009.33	0.5669
3019.07	0.7291
3028.81	0.8151
3038.56	0.8563
3048.3	0.8886
3058.04	0.8979
3067.78	0.9019
3077.53	0.905
3087.27	0.9021
3097.01	0.901
3106.75	0.901
3116.5	0.897
3126.24	0.9
3135.98	0.901
3145.72	0.901
3155.47	0.898
3165.21	0.8948
3174.95	0.892
3184.69	0.892
3194.44	0.895
3204.18	0.897
3213.92	0.9
3223.66	0.9024
3233.41	0.9102
3243.15	0.911
3252.89	0.913
3262.63	0.917
3272.38	0.918
3282.12	0.919
3291.86	0.92
3301.6	0.92
3311.35	0.922
3321.09	0.9196
3330.83	0.9163
3340.57	0.9136
3350.32	0.9118
3360.06	0.9106
3369.8	0.909
3379.54	0.909
3389.29	0.91
3399.03	0.912
3408.77	0.911
3418.52	0.913
3428.26	0.914
3438	0.914
3447.74	0.9162
3457.49	0.918
3467.23	0.92
3476.97	0.92
3486.71	0.918
3496.46	0.919
3506.2	0.9193
3515.94	0.919
3525.68	0.918
3535.43	0.9187
3545.17	0.922
3554.91	0.924
3564.65	0.9204
3574.4	0.92
3584.14	0.926
3593.88	0.923
3603.62	0.9229
3613.37	0.923
3623.11	0.928
3632.85	0.93
3642.59	0.9279
3652.34	0.932
3662.08	0.924
3671.82	0.932
3681.56	0.93
3691.31	0.928
3701.05	0.928
3710.79	0.928
3720.53	0.93
3730.28	0.928
3740.02	0.9283
3749.76	0.93
3759.5	0.926
3769.25	0.927
3778.99	0.928
3788.73	0.924
3798.47	0.924
3808.22	0.9268
3817.96	0.9228
3827.7	0.9223
3837.44	0.927
3847.19	0.9254
3856.93	0.92
3866.67	0.924
3876.41	0.924
3886.16	0.9213
3895.9	0.9174
3905.64	0.919
3915.38	0.915
3925.13	0.9136
3934.87	0.911
3944.61	0.9085
3954.35	0.905
3964.1	0.907
3973.84	0.91
3983.58	0.9069
3993.32	0.908
