Infrared Spectrum: 2-Propanamine
Formula: C 3 H 9 N
CAS: 75-31-0
State: gas
Origin: Sadtler Research Labs Under US-EPA Contract
1/CM	ABSORBANCE
450	0.00913707
462	0.0102295
474	0.0137056
486	0.0166354
498	0.00968331
510	0.00422093
522	0.00024829
534	0.00566101
546	0.00625691
558	0.00501546
570	0.00595896
582	0.00675349
594	0.0109744
606	0.0125138
618	0.0124145
630	0.0102295
642	0.0157912
654	0.0181748
666	0.0185224
678	0.0211543
690	0.0254746
702	0.028454
714	0.0363993
726	0.0463309
738	0.0608807
750	0.0986208
762	0.153791
774	0.193468
786	0.258172
798	0.182692
810	0.167198
822	0.104232
834	0.0822336
846	0.059391
858	0.0275602
870	0.0154933
882	0.0118186
894	0.00883912
906	0.00829289
918	0.00829289
930	0.00918673
942	0.0130104
954	0.015245
966	0.0171817
978	0.0171817
990	0.0111234
1002	0.00903776
1014	0.00859083
1026	0.00953434
1038	0.0133083
1050	0.0148974
1062	0.0104778
1074	0.00938536
1086	0.00918673
1098	0.0145498
1110	0.022793
1122	0.0330722
1134	0.0385843
1146	0.0533327
1158	0.064903
1170	0.0655982
1182	0.0530844
1194	0.0340654
1206	0.0154436
1218	0.0128614
1230	0.0127124
1242	0.0120172
1254	0.0119179
1266	0.0102792
1278	0.00814391
1290	0.00849152
1302	0.0127621
1314	0.0250276
1326	0.0415637
1338	0.057206
1350	0.0737421
1362	0.0846172
1374	0.109943
1386	0.104977
1398	0.0719048
1410	0.0296955
1422	0.0166851
1434	0.0226937
1446	0.0330226
1458	0.0427555
1470	0.0526375
1482	0.0336681
1494	0.0290499
1506	0.0212536
1518	0.0129111
1530	0.00849152
1542	0.0120172
1554	0.0103289
1566	0.0108254
1578	0.0180259
1590	0.0276595
1602	0.0461819
1614	0.0571564
1626	0.0626187
1638	0.0488138
1650	0.032228
1662	0.0181252
1674	0.0104778
1686	0.00829289
1698	0.0068528
1710	0.00471751
1722	0.00506512
1734	0.00734938
1746	0.0043699
1758	0.0043699
1770	0.00412161
1782	0.00263187
1794	0.00297948
1806	0.00134077
1818	0.00144008
1830	0.00223461
1842	0.00183735
1854	0.00049658
1866	0.00109248
1878	0.00074487
1890	0.000794528
1902	0.00049658
1914	0.000148974
1926	0.000595896
1938	0.00024829
1950	0.000844186
1962	0.00024829
1974	0.00024829
1986	0.000397264
1998	0.000397264
2010	0.000397264
2022	0.00049658
2034	0.000446922
2046	0.00049658
2058	0.000595896
2070	0.000595896
2082	0.000595896
2094	0.00024829
2106	0.000645554
2118	0.000645554
2130	0.000645554
2142	0.000695212
2154	0.000695212
2166	0.000695212
2178	0.000645554
2190	0.000695212
2202	0.000645554
2214	0.000446922
2226	4.9658e-05
2238	0.000645554
2250	9.9316e-05
2262	4.9658e-05
2274	0.000695212
2286	0.00074487
2298	0.00134077
2310	0.00238358
2322	0.0030788
2334	0.00233393
2346	0.00362503
2358	0.00362503
2370	0.00288016
2382	0.001887
2394	0.00109248
2406	0.00114213
2418	0.00124145
2430	0.00129111
2442	0.00129111
2454	0.00134077
2466	0.00139042
2478	0.00139042
2490	0.00139042
2502	0.00148974
2514	0.00148974
2526	0.00148974
2538	0.00193666
2550	0.0015394
2562	0.00273119
2574	0.00327743
2586	0.00441956
2598	0.0049658
2610	0.00660451
2622	0.00824323
2634	0.00988194
2646	0.0119179
2658	0.00908741
2670	0.00883912
2682	0.00834254
2694	0.00774665
2706	0.00819357
2718	0.0106765
2730	0.0111731
2742	0.0122655
2754	0.0118186
2766	0.0112227
2778	0.0127621
2790	0.0161388
2802	0.020906
2814	0.0270636
2826	0.0394781
2838	0.05373
2850	0.0715572
2862	0.11764
2874	0.118335
2886	0.134921
2898	0.141178
2910	0.153741
2922	0.149669
2934	0.189048
2946	0.278134
2958	0.373676
2970	0.48357
2982	0.34274
2994	0.200271
3006	0.0766223
3018	0.0197639
3030	0.00705144
3042	0.00541272
3054	0.00377401
3066	0.00441956
3078	0.00491614
3090	0.00456854
3102	0.00446922
3114	0.00446922
3126	0.00446922
3138	0.00511477
3150	0.00566101
3162	0.00571067
3174	0.0068528
3186	0.00705144
3198	0.00705144
3210	0.00630657
3222	0.00580999
3234	0.0043699
3246	0.00362503
3258	0.00278085
3270	0.00134077
3282	0.00144008
3294	0.00233393
3306	0.00407196
3318	0.00561135
3330	0.0083922
3342	0.00893844
3354	0.00715075
3366	0.00536306
3378	0.00278085
3390	0.00218495
3402	0.00223461
3414	0.00263187
3426	0.00183735
3438	0.00233393
3450	0.00119179
3462	0.00178769
3474	0.00134077
3486	0.000943502
3498	0
3510	0.000446922
3522	0.00114213
3534	0.000645554
3546	0.00119179
3558	0.000446922
3570	0.00144008
3582	0.00158906
3594	0.00233393
3606	0.00134077
3618	0.001887
3630	0.00347606
3642	0.00253256
3654	0.00357538
3666	0.00203598
3678	0.00377401
3690	0.00417127
3702	0.00367469
3714	0.00422093
3726	0.00412161
3738	0.00511477
3750	0.00600862
3762	0.00551204
3774	0.00486648
3786	0.00506512
3798	0.00620725
3810	0.00729973
3822	0.00729973
3834	0.00695212
3846	0.00580999
3858	0.00705144
3870	0.0080446
3882	0.0074487
3894	0.00595896
3906	0.00600862
3918	0.0065052
3930	0.00710109
3942	0.00610793
3954	0.00109248
3966	0.00144008
