Infrared Spectrum: ISO-PROPYLAMINE GAS
Formula: C3 H9 N
CAS: 75-31-0
State: GAS
Boiling point: 34 C
Class: COBLENTZ
Instrument: Not specified, most likely a prism, grating, or hybrid spectrometer.
Sampling: TRANSMISSION
Path length: 5 CMS; MORE THAN 240 mmHg
Resolution: 4
Origin: WYANDOTTE CHEMICALS CORP., WYANDOTTE, MICHIGAN, USA
MICROMETERS	TRANSMITTANCE
2.031	0.959
2.06814	0.961
2.10527	0.956
2.14241	0.958
2.17954	0.939
2.21668	0.892
2.25382	0.88
2.29095	0.881
2.32809	0.888
2.36522	0.897
2.40236	0.92
2.4395	0.937
2.47663	0.94
2.51377	0.95
2.5509	0.953
2.58804	0.954
2.62517	0.964
2.66231	0.97
2.69945	0.976
2.73658	0.982
2.77372	0.979
2.81085	0.979
2.84799	0.978
2.88513	0.978
2.92226	0.968
2.9594	0.956
2.99653	0.917
3.03367	0.81
3.07081	0.926
3.10794	0.869
3.14508	0.835
3.18221	0.866
3.21935	0.916
3.25649	0.919
3.29362	0.856
3.33076	0.248
3.36789	0.024
3.40503	0.035
3.44217	0.045
3.4793	0.054
3.51644	0.152
3.55357	0.43
3.59071	0.62
3.62785	0.698
3.66498	0.693
3.70212	0.724
3.73925	0.793
3.77639	0.682
3.81352	0.758
3.85066	0.825
3.8878	0.863
3.92493	0.902
3.96207	0.928
3.9992	0.931
4.03634	0.926
4.07348	0.926
4.11061	0.93
4.14775	0.931
4.18488	0.93
4.22202	0.925
4.25916	0.93
4.29629	0.945
4.33343	0.95
4.37056	0.951
4.4077	0.936
4.44484	0.92
4.48197	0.933
4.51911	0.939
4.55624	0.942
4.59338	0.94
4.63052	0.937
4.66765	0.931
4.70479	0.925
4.74192	0.933
4.77906	0.937
4.81619	0.939
4.85333	0.942
4.89047	0.939
4.9276	0.934
4.96474	0.936
5.00187	0.937
5.03901	0.934
5.07615	0.933
5.11328	0.925
5.15042	0.916
5.18755	0.912
5.22469	0.919
5.26183	0.922
5.29896	0.92
5.3361	0.917
5.37323	0.914
5.41037	0.911
5.44751	0.905
5.48464	0.903
5.52178	0.9
5.55891	0.897
5.59605	0.897
5.63319	0.902
5.67032	0.872
5.70746	0.833
5.74459	0.819
5.78173	0.824
5.81887	0.839
5.856	0.85
5.89314	0.853
5.93027	0.832
5.96741	0.796
6.00454	0.667
6.04168	0.466
6.07882	0.237
6.11595	0.144
6.15309	0.147
6.19022	0.217
6.22736	0.402
6.2645	0.587
6.30163	0.693
6.33877	0.743
6.3759	0.765
6.41304	0.769
6.45018	0.772
6.48731	0.774
6.52445	0.755
6.56158	0.723
6.59872	0.657
6.63586	0.52
6.67299	0.396
6.71013	0.321
6.74726	0.276
6.7844	0.202
6.82154	0.205
6.85867	0.343
6.89581	0.405
6.93294	0.51
6.97008	0.626
7.00721	0.678
7.04435	0.637
7.08149	0.466
7.11862	0.227
7.15576	0.096
7.19289	0.059
7.23003	0.041
7.26717	0.043
7.3043	0.09
7.34144	0.15
7.37857	0.122
7.41571	0.122
7.45285	0.143
7.48998	0.189
7.52712	0.256
7.56425	0.376
7.60139	0.542
7.63853	0.651
7.67566	0.724
7.7128	0.758
7.74993	0.768
7.78707	0.777
7.82421	0.772
7.86134	0.752
7.89848	0.706
7.93561	0.657
7.97275	0.631
8.00989	0.622
8.04702	0.608
8.08416	0.622
8.12129	0.636
8.15843	0.657
8.19556	0.682
8.2327	0.701
8.26984	0.693
8.30697	0.639
8.34411	0.528
8.38124	0.371
8.41838	0.256
8.45552	0.203
8.49265	0.175
8.52979	0.147
8.56692	0.163
8.60406	0.181
8.6412	0.22
8.67833	0.272
8.71547	0.284
8.7526	0.286
8.78974	0.304
8.82688	0.309
8.86401	0.298
8.90115	0.356
8.93828	0.43
8.97542	0.497
9.01256	0.586
9.04969	0.651
9.08683	0.727
9.12396	0.752
9.1611	0.772
9.19824	0.763
9.23537	0.779
9.27251	0.774
9.30964	0.758
9.34678	0.743
9.38391	0.701
9.42105	0.69
9.45819	0.67
9.49532	0.642
9.53246	0.604
9.56959	0.612
9.60673	0.62
9.64387	0.62
9.681	0.612
9.71814	0.636
9.75527	0.688
9.79241	0.706
9.82955	0.727
9.86668	0.735
9.90382	0.746
9.94095	0.757
9.97809	0.752
10.0152	0.726
10.0524	0.687
10.0895	0.651
10.1266	0.648
10.1638	0.645
10.2009	0.598
10.238	0.522
10.2752	0.542
10.3123	0.572
10.3494	0.534
10.3866	0.516
10.4237	0.561
10.4609	0.594
10.498	0.626
10.5351	0.646
10.5723	0.668
10.6094	0.699
10.6465	0.72
10.6837	0.737
10.7208	0.751
10.7579	0.727
10.7951	0.693
10.8322	0.741
10.8694	0.771
10.9065	0.779
10.9436	0.788
10.9808	0.793
11.0179	0.793
11.055	0.779
11.0922	0.797
11.1293	0.8
11.1664	0.799
11.2036	0.796
11.2407	0.782
11.2778	0.78
11.315	0.78
11.3521	0.774
11.3893	0.768
11.4264	0.758
11.4635	0.754
11.5007	0.724
11.5378	0.709
11.5749	0.69
11.6121	0.671
11.6492	0.642
11.6863	0.601
11.7235	0.542
11.7606	0.451
11.7978	0.368
11.8349	0.265
11.872	0.195
11.9092	0.13
11.9463	0.096
11.9834	0.09
12.0206	0.079
12.0577	0.076
12.0948	0.066
12.132	0.049
12.1691	0.049
12.2062	0.054
12.2434	0.051
12.2805	0.035
12.3177	0.029
12.3548	0.027
12.3919	0.021
12.4291	0.021
12.4662	0.023
12.5033	0.023
12.5405	0.023
12.5776	0.021
12.6147	0.023
12.6519	0.021
12.689	0.021
12.7261	0.021
12.7633	0.02
12.8004	0.021
12.8376	0.021
12.8747	0.023
12.9118	0.024
12.949	0.023
12.9861	0.023
13.0232	0.026
13.0604	0.027
13.0975	0.027
13.1346	0.035
13.1718	0.048
13.2089	0.055
13.2461	0.073
13.2832	0.102
13.3203	0.146
13.3575	0.183
13.3946	0.219
13.4317	0.261
13.4689	0.292
13.506	0.323
13.5431	0.354
13.5803	0.379
13.6174	0.399
13.6545	0.426
13.6917	0.452
13.7288	0.469
13.766	0.488
13.8031	0.496
13.8402	0.51
13.8774	0.533
13.9145	0.545
13.9516	0.559
13.9888	0.572
14.0259	0.581
14.063	0.586
14.1002	0.59
14.1373	0.597
14.1744	0.601
14.2116	0.612
14.2487	0.62
14.2859	0.628
14.323	0.629
14.3601	0.636
14.3973	0.639
14.4344	0.639
14.4715	0.64
14.5087	0.643
14.5458	0.646
14.5829	0.653
14.6201	0.66
14.6572	0.667
14.6944	0.674
14.7315	0.679
14.7686	0.681
14.8058	0.688
14.8429	0.688
14.88	0.688
14.9172	0.69
14.9543	0.693
14.9914	0.692
15.0286	0.692
15.0657	0.692
15.1028	0.696
15.14	0.704
15.1771	0.709
15.2143	0.707
15.2514	0.704
15.2885	0.71
15.3257	0.709
15.3628	0.712
15.3999	0.713
15.4371	0.71
15.4742	0.71
15.5113	0.707
15.5485	0.709
15.5856	0.71
15.6228	0.707
15.6599	0.712
15.697	0.707
15.7342	0.704
15.7713	0.701
15.8084	0.699
15.8456	0.701
15.8827	0.698
15.9198	0.698
15.957	0.698
15.9941	0.696
