Infrared Spectrum: Formamide, N,N-dimethyl-
Formula: C 3 H 7 N O
CAS: 68-12-2
State: gas
Origin: Sadtler Research Labs Under US-EPA Contract
1/CM	ABSORBANCE
450	0
462	0.0492367
474	0.0349524
486	0.040072
498	0.0362165
510	0.0319185
522	0.0455076
534	0.0389975
546	0.0381758
558	0.0418417
570	0.0376702
582	0.0367853
594	0.05088
606	0.0396295
618	0.0374806
630	0.0385551
642	0.0476566
654	0.0448756
666	0.0467085
678	0.0370381
690	0.0362165
702	0.0383654
714	0.0320449
726	0.0381758
738	0.0366589
750	0.0353948
762	0.0368485
774	0.0341307
786	0.0394399
798	0.037607
810	0.0350788
822	0.0370381
834	0.038239
846	0.0385551
858	0.0406408
870	0.0420313
882	0.0376702
894	0.0371013
906	0.0359636
918	0.0357108
930	0.0371645
942	0.0364061
954	0.0360268
966	0.0376702
978	0.037923
990	0.0371645
1002	0.0397559
1014	0.0410833
1026	0.043485
1038	0.0512593
1050	0.0672501
1062	0.111999
1074	0.150238
1086	0.149417
1098	0.123692
1110	0.0628258
1122	0.0480358
1134	0.0448756
1146	0.0442435
1158	0.042537
1170	0.0442435
1182	0.0437379
1194	0.0420313
1206	0.0426002
1218	0.0441803
1230	0.0462029
1242	0.0568845
1254	0.0659228
1266	0.0655436
1278	0.0666181
1290	0.0496791
1302	0.0443699
1314	0.0448123
1326	0.0453812
1338	0.0525866
1350	0.070284
1362	0.123313
1374	0.161362
1386	0.161805
1398	0.137913
1410	0.0904464
1422	0.0766045
1434	0.0599183
1446	0.0566949
1458	0.0609296
1470	0.0593495
1482	0.0618777
1494	0.0649115
1506	0.0630154
1518	0.0575798
1530	0.0468349
1542	0.0451284
1554	0.0419049
1566	0.040388
1578	0.0412729
1590	0.0401984
1602	0.0377966
1614	0.037291
1626	0.0372277
1638	0.0376702
1650	0.0415257
1662	0.0455708
1674	0.0597919
1686	0.131466
1698	0.395031
1710	0.525234
1722	0.584457
1734	0.321713
1746	0.151123
1758	0.058275
1770	0.040388
1782	0.035458
1794	0.035774
1806	0.0334354
1818	0.0321081
1830	0.0342571
1842	0.032993
1854	0.0322346
1866	0.0339411
1878	0.0321081
1890	0.0327402
1902	0.032993
1914	0.0327402
1926	0.0344467
1938	0.0345099
1950	0.0335619
1962	0.0334986
1974	0.0321713
1986	0.0312233
1998	0.0333722
2010	0.0334986
2022	0.0341939
2034	0.034826
2046	0.0345099
2058	0.0317921
2070	0.0319817
2082	0.032361
2094	0.0314129
2106	0.0319185
2118	0.0317921
2130	0.0319817
2142	0.0319185
2154	0.0316657
2166	0.0314761
2178	0.0322346
2190	0.0316025
2202	0.0322346
2214	0.032361
2226	0.0317921
2238	0.0326138
2250	0.0324874
2262	0.032361
2274	0.032677
2286	0.0314761
2298	0.0300856
2310	0.0292007
2322	0.0293903
2334	0.0331194
2346	0.0393135
2358	0.0290743
2370	0.0390607
2382	0.0377334
2394	0.0328666
2406	0.0325506
2418	0.032677
2430	0.0330562
2442	0.0336883
2454	0.0336251
2466	0.0327402
2478	0.0325506
2490	0.0334986
2502	0.0329298
2514	0.0334354
2526	0.0339411
2538	0.0338147
2550	0.0341939
2562	0.0343835
2574	0.0340043
2586	0.0339411
2598	0.0338779
2610	0.033309
2622	0.0343203
2634	0.0347628
2646	0.0345099
2658	0.0346363
2670	0.0361533
2682	0.0347628
2694	0.035458
2706	0.0366589
2718	0.0384286
2730	0.0408304
2742	0.0466453
2754	0.05088
2766	0.056126
2778	0.0572005
2790	0.0590967
2802	0.0613721
2814	0.0688302
2826	0.0888662
2838	0.103656
2850	0.116424
2862	0.1053
2874	0.0888662
2886	0.0790063
2898	0.083873
2910	0.103783
2922	0.12167
2934	0.129065
2946	0.121038
2958	0.096198
2970	0.0782478
2982	0.0674397
2994	0.0581486
3006	0.0540403
3018	0.0444331
3030	0.0426634
3042	0.0431058
3054	0.0408304
3066	0.0412097
3078	0.0397559
3090	0.0393135
3102	0.0405776
3114	0.0381758
3126	0.0373542
3138	0.0378598
3150	0.0371013
3162	0.0347628
3174	0.035142
3186	0.0345099
3198	0.0350156
3210	0.0339411
3222	0.0334354
3234	0.0334986
3246	0.0342571
3258	0.0325506
3270	0.0332458
3282	0.0339411
3294	0.0336251
3306	0.0340675
3318	0.0345099
3330	0.0312233
3342	0.0336883
3354	0.0336251
3366	0.0333722
3378	0.0326138
3390	0.0341939
3402	0.0371645
3414	0.0395031
3426	0.0365957
3438	0.0343203
3450	0.0342571
3462	0.0336251
3474	0.0345099
3486	0.032361
3498	0.0303384
3510	0.0339411
3522	0.0348892
3534	0.034826
3546	0.0343835
3558	0.0349524
3570	0.035142
3582	0.0362797
3594	0.0352052
3606	0.0363429
3618	0.0376702
3630	0.037923
3642	0.0362165
3654	0.0367853
3666	0.0379862
3678	0.0358372
3690	0.0384918
3702	0.037923
3714	0.0381126
3726	0.0365957
3738	0.0359004
3750	0.0384286
3762	0.0415889
3774	0.0345099
3786	0.0384286
3798	0.035458
3810	0.0342571
3822	0.0341939
3834	0.0358372
3846	0.0349524
3858	0.0403248
3870	0.0374174
3882	0.0376702
3894	0.0334354
3906	0.0408304
3918	0.0338779
3930	0.0384918
3942	0.0361533
3954	0.0393135
3966	0.0378598
