Infrared Spectrum: FORMAMIDE, N,N-DIMETHYL-
Formula: C3 H7 N O
CAS: 68-12-2
State: LIQUID (NEAT)
Class: COBLENTZ III
Instrument: DOW KBr FOREPRISM-GRATING
Instrument parameters: BLAZED AT 3.5, 12.0, 20.0 MICRON, CHANGED AT 5.0, 7.5, 14.9 MICRON
Sampling: TRANSMISSION
Path length: CAPILLARY, KBr PLATES
Resolution: 4
Origin: DOW CHEMICAL COMPANY
1/CM	TRANSMITTANCE
460.706	0.959
469.248	0.958
477.79	0.957
486.332	0.951
494.875	0.946
503.417	0.945
511.959	0.943
520.501	0.941
529.043	0.938
537.585	0.943
546.128	0.947
554.67	0.949
563.212	0.95
571.754	0.954
580.296	0.955
588.838	0.955
597.381	0.959
605.923	0.961
614.465	0.969
623.007	0.975
631.549	0.977
640.091	0.967
648.633	0.934
657.176	0.604
665.718	0.954
674.26	0.975
682.802	0.986
691.344	0.994
699.886	1
708.429	1.005
716.971	1.012
725.513	1.016
734.055	1.024
742.597	1.026
751.139	1.029
759.682	1.032
768.224	1.033
776.766	1.033
785.308	1.033
793.85	1.028
802.392	1.029
810.934	1.033
819.477	1.032
828.019	1.018
836.561	1.012
845.103	1.012
853.645	1.005
862.187	0.946
870.73	1.005
879.272	1.009
887.814	1.012
896.356	1.012
904.898	1.013
913.44	1.013
921.983	1.009
930.525	1.005
939.067	1.005
947.609	1.008
956.151	1.009
964.693	1.008
973.235	1.002
981.778	1.002
990.32	1.002
998.862	0.998
1007.4	0.987
1015.95	0.975
1024.49	0.957
1033.03	0.941
1041.57	0.926
1050.11	0.888
1058.66	0.785
1067.2	0.78
1075.74	0.727
1084.28	0.479
1092.83	0.325
1101.37	0.588
1109.91	0.837
1118.45	0.91
1126.99	0.942
1135.54	0.951
1144.08	0.945
1152.62	0.946
1161.16	0.958
1169.71	0.962
1178.25	0.963
1186.79	0.967
1195.33	0.969
1203.87	0.962
1212.42	0.941
1220.96	0.892
1229.5	0.873
1238.04	0.855
1246.58	0.774
1255.13	0.608
1263.67	0.794
1272.21	0.895
1280.75	0.932
1289.3	0.95
1297.84	0.955
1306.38	0.955
1314.92	0.947
1323.46	0.947
1332.01	0.941
1340.55	0.927
1349.09	0.906
1357.63	0.871
1366.17	0.804
1374.72	0.655
1383.26	0.3229
1391.8	0.312
1400.34	0.528
1408.89	0.522
1417.43	0.693
1425.97	0.743
1434.51	0.66
1443.05	0.654
1451.6	0.721
1460.14	0.723
1468.68	0.769
1477.22	0.786
1485.76	0.746
1494.31	0.703
1502.85	0.674
1511.39	0.705
1519.93	0.853
1528.48	0.912
1537.02	0.939
1545.56	0.95
1554.1	0.953
1562.64	0.951
1571.19	0.947
1579.73	0.943
1588.27	0.939
1596.81	0.931
1605.36	0.915
1613.9	0.894
1622.44	0.855
1630.98	0.776
1639.52	0.682
1648.07	0.561
1656.61	0.301
1665.15	0.083
1673.69	0.03
1682.23	0.03
1690.78	0.05
1699.32	0.207
1707.86	0.513
1716.4	0.676
1724.95	0.71
1733.49	0.749
1742.03	0.789
1750.57	0.809
1759.11	0.872
1767.66	0.922
1776.2	0.95
1784.74	0.962
1793.28	0.97
1801.82	0.977
1810.37	0.981
1818.91	0.987
1827.45	0.993
1835.99	0.993
1844.54	0.993
1853.08	0.994
1861.62	0.997
1870.16	1
1878.7	1.002
1887.25	1.001
1895.79	1.002
1904.33	1.001
1912.87	1.004
1921.42	1.006
1929.96	1.002
1938.5	1.002
1947.04	1
1955.58	0.989
1964.13	0.994
1972.67	1.001
1981.21	1.002
1989.75	1.001
1998.29	1
2006.84	0.986
2015.38	0.963
2023.92	0.965
2032.46	0.965
2041.01	0.962
2049.55	0.957
2058.09	0.958
2066.63	0.962
2075.17	0.965
2083.72	0.966
2092.26	0.966
2100.8	0.967
2109.34	0.9659
2117.88	0.962
2126.43	0.958
2134.97	0.963
2143.51	0.9661
2152.05	0.967
2160.6	0.966
2169.14	0.965
2177.68	0.963
2186.22	0.963
2194.76	0.963
2203.31	0.963
2211.85	0.9661
2220.39	0.966
2228.93	0.966
2237.47	0.966
2246.02	0.963
2254.56	0.963
2263.1	0.962
2271.64	0.957
2280.19	0.9571
2288.73	0.963
2297.27	0.963
2305.81	0.965
2314.35	0.966
2322.9	0.9693
2331.44	0.9772
2339.98	0.979
2348.52	0.979
2357.07	0.9807
2365.61	0.978
2374.15	0.977
2382.69	0.975
2391.23	0.9754
2399.78	0.979
2408.32	0.981
2416.86	0.982
2425.4	0.982
2433.94	0.982
2442.49	0.982
2451.03	0.981
2459.57	0.981
2468.11	0.979
2476.66	0.9788
2485.2	0.9778
2493.74	0.974
2502.28	0.973
2510.82	0.9733
2519.37	0.9755
2527.91	0.977
2536.45	0.9783
2544.99	0.979
2553.53	0.981
2562.08	0.9804
2570.62	0.979
2579.16	0.979
2587.7	0.978
2596.25	0.979
2604.79	0.979
2613.33	0.9796
2621.87	0.981
2630.41	0.985
2638.96	0.985
2647.5	0.982
2656.04	0.982
2664.58	0.981
2673.12	0.981
2681.67	0.979
2690.21	0.979
2698.75	0.978
2707.29	0.977
2715.84	0.977
2724.38	0.9736
2732.92	0.9696
2741.46	0.9623
2750	0.9529
2758.55	0.9329
2767.09	0.912
2775.63	0.8986
2784.17	0.8968
2792.72	0.8968
2801.26	0.8842
2809.8	0.8662
2818.34	0.8596
2826.88	0.8429
2835.43	0.8109
2843.97	0.7506
2852.51	0.7182
2861.05	0.691
2869.59	0.6993
2878.14	0.7123
2886.68	0.7254
2895.22	0.73
2903.76	0.7256
2912.31	0.7006
2920.85	0.6594
2929.39	0.6176
2937.93	0.6165
2946.47	0.6444
2955.02	0.6753
2963.56	0.7182
2972.1	0.7732
2980.64	0.8238
2989.18	0.8535
2997.73	0.8605
3006.27	0.8745
3014.81	0.893
3023.35	0.909
3031.9	0.921
3040.44	0.931
3048.98	0.934
3057.52	0.932
3066.06	0.9294
3074.61	0.9249
3083.15	0.9265
3091.69	0.9291
3100.23	0.9355
3108.78	0.9401
3117.32	0.943
3125.86	0.946
3134.4	0.947
3142.94	0.949
3151.49	0.9496
3160.03	0.947
3168.57	0.947
3177.11	0.945
3185.65	0.946
3194.2	0.947
3202.74	0.9464
3211.28	0.946
3219.82	0.946
3228.37	0.946
3236.91	0.9482
3245.45	0.951
3253.99	0.955
3262.53	0.957
3271.08	0.957
3279.62	0.957
3288.16	0.957
3296.7	0.9576
3305.24	0.9557
3313.79	0.9533
3322.33	0.9457
3330.87	0.941
3339.41	0.939
3347.96	0.942
3356.5	0.9457
3365.04	0.951
3373.58	0.9537
3382.12	0.954
3390.67	0.954
3399.21	0.953
3407.75	0.954
3416.29	0.953
3424.83	0.953
3433.38	0.951
3441.92	0.95
3450.46	0.949
3459	0.947
3467.55	0.946
3476.09	0.946
3484.63	0.946
3493.17	0.946
3501.71	0.947
3510.26	0.949
3518.8	0.9508
3527.34	0.949
3535.88	0.949
3544.43	0.949
3552.97	0.95
3561.51	0.9533
3570.05	0.955
3578.59	0.9606
3587.14	0.9668
3595.68	0.9738
3604.22	0.9806
3612.76	0.9846
3621.3	0.9868
3629.85	0.99
3638.39	0.991
3646.93	0.995
3655.47	0.995
3664.02	0.9978
3672.56	1.001
3681.1	1.002
3689.64	1.001
3698.18	1.002
3706.73	1.004
3715.27	1.004
3723.81	1.002
3732.35	1.004
3740.89	1.004
