Infrared Spectrum: FORMAMIDE, N,N-DIMETHYL-
Formula: C3 H7 N O
CAS: 68-12-2
State: GAS (10 mmHg, N2 ADDED, TOTAL PRESSURE 600 mmHg)
Class: COBLENTZ
Instrument: DOW KBr FOREPRISM-GRATING
Instrument parameters: GRATING CHANGED AT 5.0, 7.5, 15.0 MICRON
Sampling: TRANSMISSION
Path length: 5 CM
Resolution: 2
Origin: DOW CHEMICAL COMPANY
1/CM	TRANSMITTANCE
452.607	0.97
461.012	0.97
469.416	0.97
477.821	0.969
486.226	0.975
494.631	0.992
503.035	0.994
511.44	0.994
519.845	0.994
528.249	0.995
536.654	0.994
545.059	0.995
553.463	1
561.868	1.004
570.273	1.007
578.678	1.007
587.082	1.01
595.487	1.008
603.892	1.011
612.296	1.008
620.701	1.011
629.106	1.013
637.51	1.01
645.915	0.998
654.32	0.995
662.725	0.995
671.129	0.994
679.534	0.997
687.939	0.995
696.343	0.994
704.748	0.988
713.153	0.976
721.557	0.954
729.962	0.935
738.367	0.937
746.772	0.957
755.176	0.966
763.581	0.975
771.986	0.979
780.39	0.991
788.795	0.994
797.2	0.998
805.604	1.002
814.009	1.002
822.414	1.004
830.819	1.007
839.223	1.005
847.628	1.005
856.033	1.002
864.437	1.002
872.842	1.004
881.247	1.01
889.651	1.01
898.056	1.011
906.461	1.01
914.866	1.014
923.27	1.016
931.675	1.019
940.08	1.019
948.484	1.02
956.889	1.019
965.294	1.02
973.698	1.02
982.103	1.019
990.508	1.017
998.913	1.016
1007.32	1.016
1015.72	1.013
1024.13	1.01
1032.53	1.008
1040.94	1.002
1049.34	0.991
1057.75	0.96
1066.15	0.896
1074.55	0.825
1082.96	0.796
1091.36	0.819
1099.77	0.941
1108.17	0.982
1116.58	0.998
1124.98	1.007
1133.39	1.005
1141.79	1.002
1150.2	1.005
1158.6	1.007
1167.01	1.01
1175.41	1.008
1183.82	1.014
1192.22	1.017
1200.63	1.017
1209.03	1.019
1217.43	1.019
1225.84	1.019
1234.24	1.01
1242.65	0.988
1251.05	0.963
1259.46	0.959
1267.86	0.961
1276.27	0.959
1284.67	0.979
1293.08	0.988
1301.48	0.991
1309.89	0.989
1318.29	0.991
1326.7	0.991
1335.1	0.989
1343.51	0.989
1351.91	0.986
1360.31	0.969
1368.72	0.9
1377.12	0.836
1385.53	0.812
1393.93	0.819
1402.34	0.884
1410.74	0.916
1419.15	0.928
1427.55	0.948
1435.96	0.961
1444.36	0.959
1452.77	0.96
1461.17	0.957
1469.58	0.957
1477.98	0.956
1486.39	0.951
1494.79	0.945
1503.19	0.945
1511.6	0.951
1520	0.961
1528.41	0.978
1536.81	0.982
1545.22	0.985
1553.62	0.985
1562.03	0.986
1570.43	0.983
1578.84	0.98
1587.24	0.98
1595.65	0.98
1604.05	0.98
1612.46	0.98
1620.86	0.976
1629.27	0.969
1637.67	0.957
1646.07	0.934
1654.48	0.909
1662.88	0.896
1671.29	0.898
1679.69	0.912
1688.1	0.903
1696.5	0.7539
1704.91	0.472
1713.31	0.3538
1721.72	0.4081
1730.12	0.5948
1738.53	0.825
1746.93	0.891
1755.34	0.964
1763.74	0.98
1772.14	0.982
1780.55	0.982
1788.95	0.982
1797.36	0.982
1805.76	0.982
1814.17	0.982
1822.57	0.982
1830.98	0.982
1839.38	0.982
1847.79	0.982
1856.19	0.982
1864.6	0.982
1873	0.982
1881.41	0.982
1889.81	0.98
1898.22	0.98
1906.62	0.98
1915.02	0.98
1923.43	0.98
1931.83	0.979
1940.24	0.979
1948.64	0.979
1957.05	0.98
1965.45	0.983
1973.86	0.983
1982.26	0.983
1990.67	0.983
1999.07	0.983
2007.48	0.985
2015.88	0.985
2024.29	0.983
2032.69	0.983
2041.1	0.983
2049.5	0.985
2057.9	0.985
2066.31	0.986
2074.71	0.986
2083.12	0.986
2091.52	0.988
2099.93	0.988
2108.33	0.988
2116.74	0.988
2125.14	0.988
2133.55	0.986
2141.95	0.986
2150.36	0.9841
2158.76	0.985
2167.17	0.986
2175.57	0.9879
2183.98	0.988
2192.38	0.988
2200.78	0.988
2209.19	0.988
2217.59	0.988
2226	0.988
2234.4	0.988
2242.81	0.988
2251.21	0.988
2259.62	0.988
2268.02	0.988
2276.43	0.988
2284.83	0.988
2293.24	0.988
2301.64	0.989
2310.05	0.989
2318.45	0.989
2326.86	0.991
2335.26	0.995
2343.66	0.995
2352.07	0.994
2360.47	0.992
2368.88	0.992
2377.28	0.992
2385.69	0.991
2394.09	0.989
2402.5	0.991
2410.9	0.991
2419.31	0.992
2427.71	0.992
2436.12	0.992
2444.52	0.992
2452.93	0.992
2461.33	0.992
2469.74	0.992
2478.14	0.992
2486.54	0.992
2494.95	0.992
2503.35	0.992
2511.76	0.992
2520.16	0.992
2528.57	0.9912
2536.97	0.992
2545.38	0.992
2553.78	0.992
2562.19	0.991
2570.59	0.992
2579	0.991
2587.4	0.991
2595.81	0.992
2604.21	0.991
2612.61	0.991
2621.02	0.991
2629.42	0.991
2637.83	0.989
2646.23	0.989
2654.64	0.991
2663.04	0.989
2671.45	0.989
2679.85	0.989
2688.26	0.989
2696.66	0.988
2705.07	0.988
2713.47	0.986
2721.88	0.986
2730.28	0.9806
2738.69	0.9758
2747.09	0.9699
2755.49	0.9656
2763.9	0.9603
2772.3	0.959
2780.71	0.9577
2789.11	0.956
2797.52	0.956
2805.92	0.953
2814.33	0.9471
2822.73	0.9297
2831.14	0.91
2839.54	0.8956
2847.95	0.8906
2856.35	0.9004
2864.76	0.916
2873.16	0.9371
2881.57	0.937
2889.97	0.9307
2898.37	0.9211
2906.78	0.9126
2915.18	0.8991
2923.59	0.8817
2931.99	0.8722
2940.4	0.8695
2948.8	0.8946
2957.21	0.9203
2965.61	0.9402
2974.02	0.944
2982.42	0.9462
2990.83	0.9482
2999.23	0.954
3007.64	0.9611
3016.04	0.966
3024.45	0.969
3032.85	0.969
3041.25	0.969
3049.66	0.969
3058.06	0.969
3066.47	0.969
3074.87	0.969
3083.28	0.969
3091.68	0.969
3100.09	0.9681
3108.49	0.97
3116.9	0.97
3125.3	0.969
3133.71	0.97
3142.11	0.97
3150.52	0.969
3158.92	0.97
3167.33	0.969
3175.73	0.969
3184.13	0.97
3192.54	0.97
3200.94	0.969
3209.35	0.969
3217.75	0.969
3226.16	0.969
3234.56	0.97
3242.97	0.97
3251.37	0.9695
3259.78	0.967
3268.18	0.967
3276.59	0.9671
3284.99	0.967
3293.4	0.967
3301.8	0.966
3310.21	0.9641
3318.61	0.964
3327.01	0.966
3335.42	0.966
3343.82	0.9689
3352.23	0.967
3360.63	0.969
3369.04	0.967
3377.44	0.966
3385.85	0.9651
3394.25	0.9631
3402.66	0.9606
3411.06	0.9609
3419.47	0.963
3427.87	0.9669
3436.28	0.969
3444.68	0.9718
3453.08	0.975
3461.49	0.975
3469.89	0.975
3478.3	0.9751
3486.7	0.976
3495.11	0.978
3503.51	0.98
3511.92	0.98
3520.32	0.9796
3528.73	0.9781
3537.13	0.978
3545.54	0.979
3553.94	0.983
3562.35	0.985
3570.75	0.985
3579.16	0.986
3587.56	0.985
3595.96	0.983
3604.37	0.982
3612.77	0.983
3621.18	0.985
3629.58	0.986
3637.99	0.986
3646.39	0.986
3654.8	0.986
3663.2	0.9852
3671.61	0.9827
3680.01	0.979
3688.42	0.9799
3696.82	0.985
3705.23	0.985
3713.63	0.988
3722.04	0.985
3730.44	0.9858
3738.84	0.986
3747.25	0.9852
3755.65	0.985
3764.06	0.985
3772.46	0.986
3780.87	0.986
3789.27	0.986
