Infrared Spectrum: 1-Pentanol
Formula: C 5 H 12 O
CAS: 71-41-0
State: gas
Origin: Sadtler Research Labs Under US-EPA Contract
1/CM	ABSORBANCE
450	0
462	0.0964099
474	0.0788682
486	0.058426
498	0.0578735
510	0.114918
522	0.0517961
534	0.0645034
546	0.0469618
558	0.0321827
570	0.0809401
582	0.0678184
594	0.052763
606	0.0598073
618	0.0553873
630	0.0647797
642	0.0523486
654	0.051658
666	0.0493099
678	0.0513818
690	0.0520724
702	0.0574592
714	0.0515199
726	0.0506911
738	0.0570448
750	0.0649178
762	0.0748627
774	0.079697
786	0.0723765
798	0.0689234
810	0.0651941
822	0.0629841
834	0.0529011
846	0.0567686
858	0.0569067
870	0.0603598
882	0.0709952
894	0.086465
906	0.0957192
918	0.0917137
930	0.0912993
942	0.100554
954	0.125416
966	0.161604
978	0.19282
990	0.234533
1002	0.307738
1014	0.384534
1026	0.46064
1038	0.627493
1050	0.713129
1062	0.465198
1074	0.163261
1086	0.121134
1098	0.131907
1110	0.133979
1122	0.121963
1134	0.109532
1146	0.108012
1158	0.111742
1170	0.110775
1182	0.106078
1194	0.114642
1206	0.136466
1218	0.145996
1230	0.138399
1242	0.124449
1254	0.117266
1266	0.1163
1278	0.116852
1290	0.11409
1302	0.110775
1314	0.107598
1326	0.108427
1338	0.115056
1350	0.125968
1362	0.15304
1374	0.200002
1386	0.233566
1398	0.198068
1410	0.121134
1422	0.0874319
1434	0.0892275
1446	0.143095
1458	0.232599
1470	0.265749
1482	0.194063
1494	0.108288
1506	0.0643653
1518	0.0529011
1530	0.049448
1542	0.0469618
1554	0.0498624
1566	0.0462712
1578	0.0493099
1590	0.0458568
1602	0.0451662
1614	0.0428181
1626	0.0439231
1638	0.0419894
1650	0.0444756
1662	0.0406082
1674	0.0432325
1686	0.0400557
1698	0.0410225
1710	0.0388126
1722	0.0386744
1734	0.0403319
1746	0.0382601
1758	0.0395032
1770	0.0397794
1782	0.0375695
1794	0.0368788
1806	0.0367407
1818	0.037017
1830	0.0367407
1842	0.0377076
1854	0.0366026
1866	0.0367407
1878	0.0363263
1890	0.0356357
1902	0.0356357
1914	0.0361882
1926	0.0367407
1938	0.0363263
1950	0.0367407
1962	0.0366026
1974	0.0367407
1986	0.0356357
1998	0.0353595
2010	0.0372932
2022	0.0386744
2034	0.0389507
2046	0.0396413
2058	0.0408844
2070	0.04047
2082	0.0401938
2094	0.0386744
2106	0.037017
2118	0.0368788
2130	0.0361882
2142	0.0357739
2154	0.0356357
2166	0.0353595
2178	0.0350832
2190	0.0345307
2202	0.0345307
2214	0.0346689
2226	0.0345307
2238	0.0341164
2250	0.0345307
2262	0.0341164
2274	0.0338401
2286	0.0332876
2298	0.0316302
2310	0.0323208
2322	0.0342545
2334	0.0345307
2346	0.0388126
2358	0.0335639
2370	0.0328733
2382	0.032597
2394	0.0361882
2406	0.0363263
2418	0.0371551
2430	0.0367407
2442	0.0363263
2454	0.0353595
2466	0.0345307
2478	0.0341164
2490	0.0328733
2502	0.0330114
2514	0.0328733
2526	0.0334258
2538	0.0338401
2550	0.0350832
2562	0.0382601
2574	0.0385363
2586	0.0395032
2598	0.0401938
2610	0.0406082
2622	0.0418513
2634	0.0430944
2646	0.0440612
2658	0.04489
2670	0.0477906
2682	0.0500005
2694	0.0529011
2706	0.0555254
2718	0.059531
2730	0.069614
2742	0.0780395
2754	0.0798351
2766	0.0806638
2778	0.0850838
2790	0.0904706
2802	0.0940618
2814	0.10304
2826	0.120443
2838	0.153731
2850	0.240334
2862	0.427629
2874	0.71893
2886	0.897109
2898	0.850976
2910	0.823351
2922	0.92501
2934	0.98385
2946	0.940618
2958	1.0804
2970	1.38123
2982	0.99269
2994	0.398623
3006	0.139366
3018	0.0877081
3030	0.0755533
3042	0.069614
3054	0.0693377
3066	0.0654703
3078	0.0618791
3090	0.0575973
3102	0.0555254
3114	0.0504149
3126	0.0508293
3138	0.0498624
3150	0.0497243
3162	0.0517961
3174	0.0504149
3186	0.0465475
3198	0.0455806
3210	0.0408844
3222	0.0390888
3234	0.0383982
3246	0.037017
3258	0.0367407
3270	0.0383982
3282	0.0386744
3294	0.0364645
3306	0.0353595
3318	0.037017
3330	0.0342545
3342	0.0361882
3354	0.0343926
3366	0.033702
3378	0.0334258
3390	0.0332876
3402	0.0335639
3414	0.0330114
3426	0.0330114
3438	0.0342545
3450	0.0374313
3462	0.0383982
3474	0.0383982
3486	0.0396413
3498	0.0396413
3510	0.0388126
3522	0.0343926
3534	0.0353595
3546	0.0356357
3558	0.034807
3570	0.0309396
3582	0.0338401
3594	0.0360501
3606	0.0354976
3618	0.0353595
3630	0.0432325
3642	0.0679565
3654	0.112708
3666	0.169063
3678	0.180251
3690	0.116852
3702	0.0531774
3714	0.0388126
3726	0.033702
3738	0.0317683
3750	0.032597
3762	0.0327352
3774	0.0371551
3786	0.0316302
3798	0.0429563
3810	0.0382601
3822	0.032597
3834	0.0320445
3846	0.0364645
3858	0.0378457
3870	0.0389507
3882	0.0377076
3894	0.0403319
3906	0.0316302
3918	0.0371551
3930	0.0417131
3942	0.0317683
3954	0.0330114
3966	0.0342545
