Infrared Spectrum: Beta-PROPIOLACTONE
Formula: C3 H4 O2
CAS: 57-57-8
State: SOLUTION (10% CCl4 FOR 2-7.6, SATURATED-LESS THAN 10% -NaCl ADDED CS2 FOR 7.4-16)
Class: COBLENTZ III
Instrument: BAIRD (PRISM)
Instrument parameters: NaCl PRISM
Sampling: TRANSMISSION
Path length: 0.0114 CM, 0.0112 CM
Resolution: 2
Origin: DOW CHEMICAL COMPANY
1/CM	TRANSMITTANCE
4000	0.8655
3991	0.8656
3982	0.8657
3973	0.866
3964	0.8661
3955	0.8663
3946	0.8664
3937	0.8667
3928	0.8668
3919	0.8671
3910	0.8675
3901	0.8678
3892	0.8681
3883	0.8684
3874	0.8687
3865	0.8689
3856	0.8691
3847	0.8693
3838	0.8695
3829	0.8697
3820	0.8698
3811	0.8699
3802	0.8699
3793	0.87
3784	0.8701
3775	0.8701
3766	0.8701
3757	0.8701
3748	0.8701
3739	0.8697
3730	0.8691
3721	0.8671
3712	0.8623
3703	0.8566
3694	0.8496
3685	0.8411
3676	0.8315
3667	0.8243
3658	0.8194
3649	0.8153
3640	0.8132
3631	0.8119
3622	0.811
3613	0.8115
3604	0.8154
3595	0.8224
3586	0.8296
3577	0.8358
3568	0.8415
3559	0.8459
3550	0.8499
3541	0.8533
3532	0.8556
3523	0.8578
3514	0.8596
3505	0.8612
3496	0.8627
3487	0.8643
3478	0.8655
3469	0.8667
3460	0.8671
3451	0.8675
3442	0.8677
3433	0.868
3424	0.8682
3415	0.8681
3406	0.8671
3397	0.866
3388	0.8648
3379	0.8635
3370	0.862
3361	0.8607
3352	0.8595
3343	0.8583
3334	0.857
3325	0.8561
3316	0.8559
3307	0.8557
3298	0.8555
3289	0.8557
3280	0.8561
3271	0.8564
3262	0.8568
3253	0.8571
3244	0.8577
3235	0.8584
3226	0.859
3217	0.8599
3208	0.8611
3199	0.8623
3190	0.8634
3181	0.864
3172	0.8647
3163	0.8652
3154	0.8657
3145	0.866
3136	0.8661
3127	0.8659
3118	0.8655
3109	0.8648
3100	0.863
3091	0.8609
3082	0.8575
3073	0.8531
3064	0.8455
3055	0.8352
3046	0.8161
3037	0.7784
3028	0.7476
3019	0.7068
3010	0.6634
3001	0.6197
2992	0.5757
2983	0.5323
2974	0.5265
2965	0.5426
2956	0.602
2947	0.6618
2938	0.7218
2929	0.7258
2920	0.6911
2911	0.6735
2902	0.7021
2893	0.7458
2884	0.7898
2875	0.8341
2866	0.8642
2857	0.8651
2848	0.8664
2839	0.8677
2830	0.8691
2821	0.8707
2812	0.8724
2803	0.874
2794	0.8755
2785	0.8786
2776	0.8832
2767	0.8894
2758	0.8953
2749	0.8958
2740	0.8925
2731	0.8906
2722	0.8916
2713	0.8928
2704	0.8927
2695	0.892
2686	0.8913
2677	0.8916
2668	0.892
2659	0.892
2650	0.892
2641	0.892
2632	0.892
2623	0.8915
2614	0.89
2605	0.8841
2596	0.8659
2587	0.8557
2578	0.8537
2569	0.8564
2560	0.8649
2551	0.8733
2542	0.8818
2533	0.8887
2524	0.894
2515	0.8946
2506	0.8905
2497	0.8901
2488	0.8915
2479	0.892
2470	0.8917
2461	0.8911
2452	0.8904
2443	0.8898
2434	0.8878
2425	0.8708
2416	0.8628
2407	0.8615
2398	0.87
2389	0.8817
2380	0.8921
2371	0.898
2362	0.899
2353	0.8996
2344	0.9001
2335	0.9004
2326	0.8968
2317	0.8903
2308	0.8836
2299	0.8794
2290	0.8763
2281	0.8744
2272	0.874
2263	0.874
2254	0.8733
2245	0.8725
2236	0.8692
2227	0.8534
2218	0.8342
2209	0.8117
2200	0.7924
2191	0.7815
2182	0.7871
2173	0.8125
2164	0.8378
2155	0.8599
2146	0.8771
2137	0.8909
2128	0.8936
2119	0.8937
2110	0.894
2101	0.894
2092	0.889
2083	0.8874
2074	0.8891
2065	0.8885
2056	0.8855
2047	0.885
2038	0.8857
2029	0.8844
2020	0.865
2011	0.8218
2002	0.7807
1993	0.739
1984	0.6869
1975	0.6517
1966	0.6458
1957	0.6967
1948	0.7587
1939	0.7925
1930	0.7918
1921	0.7786
1912	0.7171
1903	0.6096
1894	0.5383
1885	0.5335
1876	0.4144
1867	0.2501
1858	0.111
1849	0.0625
1840	0.0199
1831	0.0238
1822	0.0253
1813	0.0231
1804	0.0224
1795	0.0265
1786	0.081
1777	0.3292
1768	0.4931
1759	0.5496
1750	0.523
1741	0.4387
1732	0.426
1723	0.4991
1714	0.6571
1705	0.7576
1696	0.8071
1687	0.8278
1678	0.8471
1669	0.8607
1660	0.8667
1651	0.8684
1642	0.8692
1633	0.8611
1624	0.8414
1615	0.8249
1606	0.7968
1597	0.7617
1588	0.6751
1579	0.6309
1570	0.5949
1561	0.5498
1552	0.5095
1543	0.4962
1534	0.5212
1525	0.5742
1516	0.6291
1507	0.6676
1498	0.7003
1489	0.7405
1480	0.7744
1471	0.7743
1462	0.8039
1453	0.8203
1444	0.8251
1435	0.8072
1426	0.7493
1417	0.5519
1408	0.1942
1399	0.5367
1390	0.7291
1381	0.78
1372	0.7915
1363	0.7831
1354	0.7942
1345	0.7971
1336	0.7611
1327	0.5428
1318	0.2369
1309	0.3903
1300	0.7078
1291	0.841
1282	0.8858
1273	0.899
1264	0.9053
1255	0.9071
1246	0.8973
1237	0.8916
1228	0.8897
1219	0.8875
1210	0.8684
1201	0.6951
1192	0.6171
1183	0.8146
1174	0.8371
1165	0.8454
1156	0.8398
1147	0.8182
1138	0.7651
1129	0.6989
1120	0.5329
1111	0.2501
1102	0.0743
1093	0.0366
1084	0.1292
1075	0.4672
1066	0.651
1057	0.7475
1048	0.7392
1039	0.7743
1030	0.8536
1021	0.8801
1012	0.8877
1003	0.8824
994	0.8762
985	0.8786
976	0.8868
967	0.8914
958	0.8891
949	0.8797
940	0.8521
931	0.7895
922	0.6369
913	0.2214
904	0.0714
895	0.4648
886	0.6073
877	0.3324
868	0.5412
859	0.676
850	0.7092
841	0.7911
832	0.8561
823	0.8805
814	0.8793
805	0.8627
796	0.7887
787	0.6984
778	0.8233
769	0.8452
760	0.8278
751	0.8146
742	0.8115
733	0.7934
724	0.7728
715	0.7521
706	0.724
697	0.6984
688	0.6661
679	0.6158
670	0.5564
661	0.5144
652	0.4781
643	0.4706
634	0.4822
