Infrared Spectrum: SULFURYL FLUORIDE
Formula: F2 O2 S
CAS: 2699-79-8
State: GAS (2.1 mmHg, N2 ADD, TOTAL PRESSURE 600 mmHg)
Class: COBLENTZ
Instrument: PERKIN-ELMER 180
Instrument parameters: I0 MODE; RESOLUTION: 1 CM^-^1 AT 4000 CM^-^1
Sampling: TRANSMISSION
Path length: 10 CM
Resolution: 1 CM^-^1 AT 4000
Origin: DOW CHEMICAL COMPANY
1/CM	TRANSMITTANCE
195.455	0.536
206.061	0
216.667	0
227.273	0
237.879	0.001
248.485	0.004
259.091	0.007
269.697	0.004
280.303	0.006
290.91	0.01
301.516	0.022
312.122	0.039
322.728	0.058
333.334	0.107
343.94	0.176
354.546	0.247
365.152	0.312
375.758	0.4059
386.364	0.48
396.97	0.554
407.576	0.637
418.182	0.693
428.788	0.743
439.394	0.783
450	0.821
460.607	0.85
471.213	0.864
481.819	0.88
492.425	0.889
503.031	0.901
513.637	0.862
524.243	0.7621
534.849	0.7081
545.455	0.69
556.061	0.725
566.667	0.8269
577.273	0.913
587.879	0.929
598.485	0.932
609.091	0.932
619.697	0.929
630.303	0.932
640.91	0.933
651.516	0.929
662.122	0.945
672.728	0.932
683.334	0.933
693.94	0.936
704.546	0.932
715.152	0.935
725.758	0.936
736.364	0.927
746.97	0.925
757.576	0.927
768.182	0.93
778.788	0.93
789.394	0.941
800	0.935
810.606	0.925
821.213	0.8231
831.819	0.67
842.425	0.5303
853.031	0.6322
863.637	0.362
874.243	0.4096
884.849	0.1632
895.455	0.407
906.061	0.6666
916.667	0.912
927.273	0.921
937.879	0.922
948.485	0.922
959.091	0.916
969.697	0.916
980.303	0.922
990.91	0.912
1001.52	0.93
1012.12	0.922
1022.73	0.932
1033.33	0.93
1043.94	0.93
1054.55	0.925
1065.15	0.922
1075.76	0.924
1086.36	0.925
1096.97	0.93
1107.58	0.941
1118.18	0.929
1128.79	0.922
1139.39	0.929
1150	0.925
1160.61	0.933
1171.21	0.932
1181.82	0.927
1192.42	0.932
1203.03	0.935
1213.64	0.935
1224.24	0.93
1234.85	0.91
1245.45	0.8091
1256.06	0.599
1266.67	0.607
1277.27	0.749
1287.88	0.555
1298.49	0.8919
1309.09	0.939
1319.7	0.945
1330.3	0.935
1340.91	0.932
1351.52	0.932
1362.12	0.938
1372.73	0.933
1383.33	0.921
1393.94	0.927
1404.55	0.927
1415.15	0.935
1425.76	0.933
1436.36	0.939
1446.97	0.932
1457.58	0.939
1468.18	0.88
1478.79	0.7202
1489.39	0.3911
1500	0.323
1510.61	0.4897
1521.21	0.4599
1531.82	0.9
1542.42	0.941
1553.03	0.938
1563.64	0.927
1574.24	0.938
1584.85	0.925
1595.45	0.925
1606.06	0.929
1616.67	0.93
1627.27	0.929
1637.88	0.927
1648.49	0.939
1659.09	0.927
1669.7	0.932
1680.3	0.936
1690.91	0.927
1701.52	0.921
1712.12	0.93
1722.73	0.916
1733.33	0.927
1743.94	0.924
1754.55	0.929
1765.15	0.927
1775.76	0.922
1786.36	0.929
1796.97	0.927
1807.58	0.929
1818.18	0.925
1828.79	0.929
1839.39	0.929
1850	0.924
1860.61	0.927
1871.21	0.925
1881.82	0.929
1892.42	0.929
1903.03	0.929
1913.64	0.927
1924.24	0.925
1934.85	0.922
1945.45	0.924
1956.06	0.924
1966.67	0.924
1977.27	0.924
1987.88	0.921
1998.49	0.922
2009.09	0.921
2019.7	0.921
2030.3	0.9239
2040.91	0.9169
2051.52	0.9191
2062.12	0.9197
2072.73	0.919
2083.33	0.918
2093.94	0.922
2104.55	0.916
2115.15	0.918
2125.76	0.9173
2136.36	0.921
2146.97	0.921
2157.58	0.9218
2168.18	0.918
2178.79	0.916
2189.39	0.9198
2200	0.918
2210.61	0.918
2221.21	0.919
2231.82	0.919
2242.42	0.919
2253.03	0.9207
2263.64	0.919
2274.24	0.9154
2284.85	0.919
2295.45	0.921
2306.06	0.927
2316.67	0.9296
2327.27	0.926
2337.88	0.9319
2348.49	0.9377
2359.09	0.95
2369.7	0.9175
2380.3	0.918
2390.91	0.918
2401.52	0.916
2412.12	0.916
2422.73	0.9131
2433.33	0.9156
2443.94	0.9162
2454.55	0.918
2465.15	0.918
2475.76	0.918
2486.36	0.918
2496.97	0.916
2507.58	0.913
2518.18	0.91
2528.79	0.9104
2539.39	0.9174
2550	0.918
2560.61	0.9158
2571.21	0.912
2581.82	0.9158
2592.42	0.9166
2603.03	0.918
2613.64	0.9139
2624.24	0.916
2634.85	0.916
2645.45	0.9121
2656.06	0.9124
2666.67	0.9148
2677.27	0.9156
2687.88	0.915
2698.49	0.9111
2709.09	0.91
2719.7	0.91
2730.3	0.909
2740.91	0.9035
2751.52	0.903
2762.12	0.906
2772.73	0.91
2783.33	0.91
2793.94	0.916
2804.55	0.9139
2815.15	0.9133
2825.76	0.915
2836.36	0.9099
2846.97	0.907
2857.58	0.909
2868.18	0.9096
2878.79	0.91
2889.39	0.91
2900	0.9074
2910.61	0.907
2921.21	0.906
2931.82	0.907
2942.42	0.907
2953.03	0.9068
2963.64	0.9084
2974.24	0.9044
2984.85	0.904
2995.45	0.907
3006.06	0.91
3016.67	0.906
3027.27	0.907
3037.88	0.9064
3048.49	0.9064
3059.09	0.91
3069.7	0.9052
3080.3	0.906
3090.91	0.906
3101.52	0.909
3112.12	0.909
3122.73	0.909
3133.33	0.907
3143.94	0.906
3154.55	0.9049
3165.15	0.904
3175.76	0.904
3186.36	0.903
3196.97	0.901
3207.58	0.903
3218.18	0.9
3228.79	0.9
3239.39	0.8997
3250	0.9
3260.61	0.906
3271.21	0.9
3281.82	0.898
3292.42	0.898
3303.03	0.901
3313.64	0.898
3324.24	0.8972
3334.85	0.901
3345.45	0.8986
3356.06	0.8973
3366.67	0.898
3377.27	0.901
3387.88	0.8983
3398.49	0.8987
3409.09	0.9
3419.7	0.9
3430.3	0.9
3440.91	0.9
3451.52	0.9
3462.12	0.9
3472.73	0.9
3483.33	0.9005
3493.94	0.903
3504.55	0.903
3515.15	0.903
3525.76	0.903
3536.36	0.904
3546.97	0.904
3557.58	0.9041
3568.18	0.906
3578.79	0.906
3589.39	0.907
3600	0.906
3610.61	0.906
3621.21	0.9092
3631.82	0.9093
3642.42	0.9071
3653.03	0.9079
3663.64	0.9152
3674.24	0.9165
3684.85	0.913
3695.45	0.91
3706.06	0.909
3716.67	0.91
3727.27	0.9129
3737.88	0.918
3748.49	0.919
3759.09	0.9108
3769.7	0.906
3780.3	0.906
3790.91	0.9108
3801.52	0.9098
3812.12	0.9078
3822.73	0.912
3833.33	0.912
3843.94	0.9149
3854.55	0.919
3865.15	0.9131
3875.76	0.911
3886.36	0.909
3896.97	0.906
3907.58	0.906
3918.18	0.9081
3928.79	0.91
3939.39	0.9094
3950	0.907
3960.61	0.906
3971.21	0.906
3981.82	0.9096
3992.42	0.9092
