Infrared Spectrum: SULFURYL FLUORIDE
Formula: F2 O2 S
CAS: 2699-79-8
State: GAS (2.1 mmHg DILUTED TO A TOTAL PRESSURE OF 600 mmHg WITH N2)
Class: COBLENTZ
Instrument: PERKIN-ELMER 180
Instrument parameters: I0 MODE RESOLUTION: 1 CM^-^1 AT 4000 CM^-^1
Sampling: TRANSMISSION
Path length: 10 CM CELL
Resolution: 4
Origin: DOW CHEMICAL COMPANY
1/CM	TRANSMITTANCE
192.941	0
203.399	0
213.856	0
224.314	0
234.771	0
245.229	0.002
255.686	0.005
266.144	0.008
276.601	0.003
287.059	0.008
297.516	0.014
307.974	0.031
318.431	0.048
328.889	0.088
339.347	0.14
349.804	0.206
360.262	0.279
370.719	0.377
381.177	0.442
391.634	0.517
402.092	0.585
412.549	0.667
423.007	0.713
433.464	0.762
443.922	0.8
454.379	0.829
464.837	0.852
475.294	0.869
485.752	0.883
496.21	0.895
506.667	0.893
517.125	0.841
527.582	0.739
538.04	0.72
548.497	0.675
558.955	0.738
569.412	0.85
579.87	0.92
590.327	0.933
600.785	0.932
611.242	0.932
621.7	0.929
632.158	0.933
642.615	0.933
653.073	0.929
663.53	0.947
673.988	0.933
684.445	0.932
694.903	0.936
705.36	0.932
715.818	0.935
726.275	0.937
736.733	0.928
747.19	0.927
757.648	0.93
768.106	0.931
778.563	0.932
789.021	0.937
799.478	0.933
809.936	0.929
820.393	0.853
830.851	0.692
841.308	0.642
851.766	0.7229
862.223	0.366
872.681	0.366
883.138	0.2818
893.596	0.427
904.053	0.59
914.511	0.903
924.969	0.922
935.426	0.922
945.884	0.921
956.341	0.922
966.799	0.921
977.256	0.917
987.714	0.919
998.171	0.92
1008.63	0.926
1019.09	0.931
1029.54	0.923
1040	0.931
1050.46	0.93
1060.92	0.927
1071.37	0.923
1081.83	0.928
1092.29	0.928
1102.75	0.935
1113.2	0.929
1123.66	0.93
1134.12	0.929
1144.58	0.925
1155.03	0.935
1165.49	0.932
1175.95	0.93
1186.41	0.931
1196.86	0.935
1207.32	0.933
1217.78	0.933
1228.24	0.92
1238.69	0.87
1249.15	0.663
1259.61	0.5191
1270.07	0.1327
1280.52	0.492
1290.98	0.7981
1301.44	0.935
1311.9	0.941
1322.35	0.932
1332.81	0.937
1343.27	0.929
1353.73	0.936
1364.19	0.932
1374.64	0.926
1385.1	0.92
1395.56	0.925
1406.02	0.939
1416.47	0.934
1426.93	0.936
1437.39	0.939
1447.85	0.933
1458.3	0.923
1468.76	0.863
1479.22	0.6008
1489.68	0.36
1500.13	0.2295
1510.59	0.348
1521.05	0.5481
1531.51	0.926
1541.96	0.938
1552.42	0.94
1562.88	0.928
1573.34	0.939
1583.79	0.927
1594.25	0.926
1604.71	0.929
1615.17	0.932
1625.62	0.929
1636.08	0.936
1646.54	0.938
1657	0.927
1667.45	0.933
1677.91	0.928
1688.37	0.922
1698.83	0.926
1709.28	0.926
1719.74	0.919
1730.2	0.929
1740.66	0.922
1751.11	0.928
1761.57	0.927
1772.03	0.93
1782.49	0.926
1792.94	0.931
1803.4	0.926
1813.86	0.927
1824.32	0.927
1834.77	0.929
1845.23	0.923
1855.69	0.929
1866.15	0.928
1876.6	0.926
1887.06	0.927
1897.52	0.926
1907.98	0.929
1918.43	0.927
1928.89	0.926
1939.35	0.926
1949.81	0.925
1960.26	0.925
1970.72	0.925
1981.18	0.923
1991.64	0.923
2002.09	0.923
2012.55	0.919
2023.01	0.9231
2033.47	0.922
2043.92	0.917
2054.38	0.921
2064.84	0.918
2075.3	0.9219
2085.76	0.918
2096.21	0.923
2106.67	0.9181
2117.13	0.92
2127.59	0.917
2138.04	0.92
2148.5	0.922
2158.96	0.925
2169.42	0.9219
2179.87	0.9189
2190.33	0.9211
2200.79	0.921
2211.25	0.919
2221.7	0.92
2232.16	0.9174
2242.62	0.9201
2253.08	0.9169
2263.53	0.922
2273.99	0.9199
2284.45	0.9172
2294.91	0.9212
2305.36	0.926
2315.82	0.929
2326.28	0.9358
2336.74	0.9237
2347.19	0.9278
2357.65	0.9424
2368.11	0.9464
2378.57	0.9124
2389.02	0.918
2399.48	0.9186
2409.94	0.9162
2420.4	0.9178
2430.85	0.915
2441.31	0.918
2451.77	0.917
2462.23	0.9187
2472.68	0.918
2483.14	0.918
2493.6	0.918
2504.06	0.9177
2514.51	0.9157
2524.97	0.914
2535.43	0.9133
2545.89	0.918
2556.34	0.919
2566.8	0.918
2577.26	0.9147
2587.72	0.9163
2598.17	0.918
2608.63	0.918
2619.09	0.9157
2629.55	0.916
2640	0.917
2650.46	0.915
2660.92	0.9124
2671.38	0.9156
2681.83	0.918
2692.29	0.9136
2702.75	0.9158
2713.21	0.9126
2723.66	0.911
2734.12	0.9106
2744.58	0.901
2755.04	0.9072
2765.49	0.9058
2775.95	0.907
2786.41	0.9124
2796.87	0.916
2807.33	0.9156
2817.78	0.9126
2828.24	0.916
2838.7	0.9125
2849.16	0.9095
2859.61	0.91
2870.07	0.91
2880.53	0.9115
2890.99	0.912
2901.44	0.9105
2911.9	0.9085
2922.36	0.907
2932.82	0.909
2943.27	0.91
2953.73	0.908
2964.19	0.911
2974.65	0.9085
2985.1	0.908
2995.56	0.909
3006.02	0.911
3016.48	0.9085
3026.93	0.909
3037.39	0.91
3047.85	0.9076
3058.31	0.9106
3068.76	0.909
3079.22	0.909
3089.68	0.9084
3100.14	0.9082
3110.59	0.911
3121.05	0.91
3131.51	0.909
3141.97	0.9054
3152.42	0.904
3162.88	0.9056
3173.34	0.907
3183.8	0.904
3194.25	0.904
3204.71	0.904
3215.17	0.903
3225.63	0.902
3236.08	0.903
3246.54	0.9
3257	0.9027
3267.46	0.903
3277.91	0.901
3288.37	0.9007
3298.83	0.9027
3309.29	0.9013
3319.74	0.898
3330.2	0.9007
3340.66	0.903
3351.12	0.8973
3361.57	0.9002
3372.03	0.9007
3382.49	0.9022
3392.95	0.8962
3403.4	0.903
3413.86	0.9002
3424.32	0.9018
3434.78	0.901
3445.23	0.904
3455.69	0.902
3466.15	0.903
3476.61	0.902
3487.06	0.903
3497.52	0.903
3507.98	0.901
3518.44	0.902
3528.9	0.9038
3539.35	0.9025
3549.81	0.9048
3560.27	0.909
3570.73	0.9001
3581.18	0.9059
3591.64	0.907
3602.1	0.9089
3612.56	0.9061
3623.01	0.9116
3633.47	0.9079
3643.93	0.91
3654.39	0.9081
3664.84	0.9118
3675.3	0.915
3685.76	0.9131
3696.22	0.9111
3706.67	0.91
3717.13	0.91
3727.59	0.911
3738.05	0.9129
3748.5	0.922
3758.96	0.91
3769.42	0.908
3779.88	0.908
3790.33	0.9119
3800.79	0.911
3811.25	0.91
3821.71	0.91
3832.16	0.914
3842.62	0.912
3853.08	0.921
3863.54	0.913
3873.99	0.912
3884.45	0.91
3894.91	0.908
3905.37	0.907
3915.82	0.907
3926.28	0.909
3936.74	0.91
3947.2	0.907
3957.65	0.9039
3968.11	0.907
3978.57	0.908
3989.03	0.91
3999.48	0.91
