Infrared Spectrum: 2-Butene
Formula: C 4 H 8
CAS: 107-01-7
State: gas
Instrument: HP-GC/MS/IRD
Origin: NIST Mass Spectrometry Data Center
1/CM	ABSORBANCE
550	0.0002046
562	0.0002002
574	0.0003663
586	0.0002915
598	0.0003729
610	0.000187
622	0.0004125
634	0.0006006
646	0.0010659
658	0.0015301
670	0.0021087
682	0.001463
694	0.0012067
706	0.0006633
718	0.0004389
730	0.0001639
742	0.0001045
754	7.37e-05
766	3.41e-05
778	8.8e-05
790	8.36e-05
802	3.85e-05
814	0.0001914
826	0.0001672
838	0.0001474
850	0.0001771
862	0.0002706
874	0.0003377
886	0.0004851
898	0.0006237
910	0.0010725
922	0.0015741
934	0.0022253
946	0.0029007
958	0.0043417
970	0.0042834
982	0.0037103
994	0.0027709
1006	0.0016456
1018	0.0010714
1030	0.0008679
1042	0.0008481
1054	0.0008393
1066	0.0008063
1078	0.0005335
1090	0.0003179
1102	0.0001881
1114	0.0001683
1126	0.0001309
1138	0.0001232
1150	0.0001056
1162	0.0001067
1174	0.0001144
1186	0.0001353
1198	0.0001386
1210	0.0001573
1222	0.0002431
1234	0.000231
1246	0.0002926
1258	0.0003267
1270	0.0003289
1282	0.0004092
1294	0.000451
1306	0.0005368
1318	0.0005907
1330	0.0005159
1342	0.0006347
1354	0.0007337
1366	0.0009955
1378	0.0012936
1390	0.0016841
1402	0.0018139
1414	0.0017853
1426	0.0018139
1438	0.0018513
1450	0.0020009
1462	0.0015763
1474	0.0016489
1486	0.0013728
1498	0.0011033
1510	0.0009614
1522	0.0007942
1534	0.0006358
1546	0.0005478
1558	0.0004774
1570	0.0003927
1582	0.0003135
1594	0.0003663
1606	0.0003817
1618	0.0004213
1630	0.0004631
1642	0.0004532
1654	0.0004587
1666	0.0004521
1678	0.0004521
1690	0.0004422
1702	0.0003839
1714	0.0002981
1726	0.0001628
1738	0.0001155
1750	0.0001166
1762	0.0001606
1774	0.0001584
1786	0.000165
1798	0.0001507
1810	7.92e-05
1822	7.7e-05
1834	4.73e-05
1846	3.41e-05
1858	5.28e-05
1870	5.5e-05
1882	4.51e-05
1894	7.92e-05
1906	0.0001045
1918	8.25e-05
1930	0.0001023
1942	7.92e-05
1954	9.68e-05
1966	0.0001287
1978	0.0001144
1990	0.0001881
2002	0.0001573
2014	0.000143
2026	6.49e-05
2038	2.97e-05
2050	3.19e-05
2062	5.61e-05
2074	1.76e-05
2086	8.8e-06
2098	7.7e-06
2110	2.2e-06
2122	1.54e-05
2134	1.65e-05
2146	4.73e-05
2158	2.09e-05
2170	4.07e-05
2182	3.52e-05
2194	2.42e-05
2206	1.76e-05
2218	4.95e-05
2230	5.94e-05
2242	5.72e-05
2254	5.28e-05
2266	6.16e-05
2278	7.92e-05
2290	8.91e-05
2302	8.91e-05
2314	8.25e-05
2326	6.38e-05
2338	0.0001067
2350	0.0001309
2362	0.0001309
2374	0.000132
2386	9.79e-05
2398	0.0001287
2410	0.0001727
2422	0.0001859
2434	0.0001408
2446	0.0001551
2458	0.0001474
2470	0.0001639
2482	0.0001408
2494	0.0001364
2506	0.0001144
2518	0.0001408
2530	0.000165
2542	0.000143
2554	9.79e-05
2566	0.0001474
2578	0.0001386
2590	0.000121
2602	0.0001694
2614	0.0001496
2626	0.0001463
2638	0.000154
2650	0.0001683
2662	0.0001529
2674	0.0001991
2686	0.0001507
2698	0.0002277
2710	0.0003069
2722	0.0004389
2734	0.0005511
2746	0.0006039
2758	0.0006083
2770	0.0004917
2782	0.0005797
2794	0.0006127
2806	0.0007513
2818	0.0009141
2830	0.0012683
2842	0.0019613
2854	0.0036476
2866	0.0051293
2878	0.0062326
2890	0.0070444
2902	0.0074646
2914	0.0095392
2926	0.0102443
2938	0.010835
2950	0.0104929
2962	0.0081719
2974	0.0072754
2986	0.007337
2998	0.0070224
3010	0.0070719
3022	0.006589
3034	0.0063426
3046	0.0055429
3058	0.0040909
3070	0.0028512
3082	0.0020075
3094	0.0014069
3106	0.0010802
3118	0.0008503
3130	0.000616
3142	0.0004829
3154	0.0003663
3166	0.0003839
3178	0.0003443
3190	0.0002596
3202	0.0002244
3214	0.0002178
3226	0.0002761
3238	0.0002112
3250	0.0002057
3262	0.0001628
3274	0.0001419
3286	0.0001133
3298	0.0001331
3310	0.000165
3322	0.0001694
3334	0.0001485
3346	6.38e-05
3358	0.0001507
3370	0.0001133
3382	0.0001023
3394	5.83e-05
3406	0.0001298
3418	0.0001716
3430	8.69e-05
3442	0.0001353
3454	0.0001551
3466	0.0001144
3478	8.8e-05
3490	0.0001078
3502	4.51e-05
3514	3.08e-05
3526	8.47e-05
3538	0.0001243
3550	0.0001276
3562	0.0001111
3574	3.85e-05
3586	0.0001155
3598	0.0001419
3610	0.0001023
3622	5.94e-05
3634	0.0001111
3646	0.0002024
3658	0.0001518
3670	0.000154
3682	0.0001034
3694	0.0001265
3706	0.0001265
3718	6.71e-05
3730	0.0001397
3742	9.68e-05
3754	0.0001144
3766	0.0001551
3778	0.000176
3790	0.0001067
3802	0.0001914
3814	0.0001474
3826	0.0001177
3838	0.0001705
