Infrared Spectrum: Ethanol, 2-(ethylamino)-
Formula: C 4 H 11 N O
CAS: 110-73-6
State: gas
Origin: Sadtler Research Labs Under US-EPA Contract
1/CM	ABSORBANCE
450	0.115725
462	0.0457177
474	0.0398883
486	0.0250449
498	0.020187
510	0.0257466
522	0.0319538
534	0.0273119
546	0.0302266
558	0.0213205
570	0.0144656
582	0.0102015
594	0.00496579
606	0.000593736
618	0.00340049
630	0.00739471
642	0.00825833
654	0.015761
666	0.0189456
678	0.0252608
690	0.0318998
702	0.0365418
714	0.0614247
726	0.0711943
738	0.0716262
750	0.0485244
762	0.0384309
774	0.0260704
786	0.022562
798	0.0275817
810	0.0220222
822	0.0146815
834	0.0166246
846	0.0246131
858	0.0381071
870	0.0730835
882	0.0788589
894	0.0637457
906	0.0610469
918	0.0527885
930	0.0461495
942	0.0355702
954	0.0344907
966	0.0378912
978	0.0493341
990	0.0659047
1002	0.0883047
1014	0.14417
1026	0.26092
1038	0.449998
1050	0.510883
1062	0.509264
1074	0.501761
1086	0.355054
1098	0.174019
1110	0.12204
1122	0.126574
1134	0.14919
1146	0.156476
1158	0.138664
1170	0.123389
1182	0.123011
1194	0.118369
1206	0.130406
1218	0.136397
1230	0.10698
1242	0.0904098
1254	0.0909496
1266	0.100989
1278	0.101907
1290	0.103472
1302	0.105307
1314	0.100557
1326	0.108654
1338	0.131
1350	0.156746
1362	0.167811
1374	0.177851
1386	0.21029
1398	0.228858
1410	0.189996
1422	0.109895
1434	0.0885746
1446	0.117452
1458	0.154209
1470	0.147678
1482	0.101313
1494	0.0454478
1506	0.0236415
1518	0.0167865
1530	0.0137639
1542	0.011173
1554	0.0104713
1566	0.0104713
1578	0.00955375
1590	0.00955375
1602	0.00928387
1614	0.00917592
1626	0.0117128
1638	0.0111191
1650	0.00820435
1662	0.00928387
1674	0.00782652
1686	0.00663905
1698	0.00685495
1710	0.00869014
1722	0.00534362
1734	0.00172723
1746	0.0051817
1758	0.00480386
1770	0.00701688
1782	0.00782652
1794	0.00761062
1806	0.0069629
1818	0.00690893
1830	0.00658507
1842	0.00717881
1854	0.00626122
1866	0.00582941
1878	0.00647712
1890	0.00642314
1902	0.00685495
1914	0.00728676
1926	0.00690893
1938	0.00723278
1950	0.00658507
1962	0.00566748
1974	0.00442603
1986	0.00399422
1998	0.00334651
2010	0.00318458
2022	0.00307663
2034	0.00253687
2046	0.00356242
2058	0.00388627
2070	0.00394025
2082	0.00399422
2094	0.0038323
2106	0.0038323
2118	0.00388627
2130	0.00313061
2142	0.00259085
2154	0.00205109
2166	0.00167326
2178	0.00124145
2190	0.000755664
2202	0.000755664
2214	0
2226	0.000755664
2238	0.00053976
2250	0.000323856
2262	0.000377832
2274	0.000377832
2286	0.000377832
2298	0.000431808
2310	0.000755664
2322	0.000971568
2334	0.00205109
2346	0.00232097
2358	0.00107952
2370	0.0029147
2382	0.0013494
2394	0.000647712
2406	0.000701688
2418	0.000647712
2430	0.000917592
2442	0.000701688
2454	0.000701688
2466	0.000863616
2478	0.000863616
2490	0.000593736
2502	0.000647712
2514	0.000701688
2526	0.00118747
2538	0.00129542
2550	0.00178121
2562	0.0024829
2574	0.00399422
2586	0.00545158
2598	0.00523567
2610	0.006747
2622	0.00874411
2634	0.0105793
2646	0.0146275
2658	0.0194314
2670	0.0231557
2682	0.0276897
2694	0.0344367
2706	0.0408598
2718	0.0474989
2730	0.0525726
2742	0.0582401
2754	0.0661746
2766	0.0812339
2778	0.104228
2790	0.141525
2802	0.219197
2814	0.343395
2826	0.422686
2838	0.375727
2850	0.300592
2862	0.282456
2874	0.356889
2886	0.420203
2898	0.373082
2910	0.336648
2922	0.383931
2934	0.477957
2946	0.53976
2958	0.520275
2970	0.531394
2982	0.459768
2994	0.196149
3006	0.0641775
3018	0.0296868
3030	0.0181359
3042	0.0132241
3054	0.00933785
3066	0.0069629
3078	0.00485784
3090	0.00334651
3102	0.00140338
3114	0.000593736
3126	0.00102554
3138	0.000701688
3150	0.00178121
3162	0.0013494
3174	0.00107952
3186	0.00221302
3198	0.00205109
3210	0.00145735
3222	0.00194314
3234	0.00215904
3246	0.00161928
3258	0.00215904
3270	0.00388627
3282	0.0038323
3294	0.00474989
3306	0.00626122
3318	0.00739471
3330	0.00798845
3342	0.00939182
3354	0.0100935
3366	0.0114429
3378	0.0119827
3390	0.0131162
3402	0.0144656
3414	0.0159769
3426	0.0176502
3438	0.0185138
3450	0.0197552
3462	0.0208887
3474	0.0205649
3486	0.0215904
3498	0.0231017
3510	0.0277437
3522	0.0406439
3534	0.0637457
3546	0.0803163
3558	0.0839327
3570	0.0771317
3582	0.0626122
3594	0.0437206
3606	0.0301186
3618	0.0192155
3630	0.0121986
3642	0.015653
3654	0.0268261
3666	0.0500358
3678	0.0486324
3690	0.0231017
3702	0.00372434
3714	0
3726	0
3738	0
3750	0
3762	0
3774	0
3786	0
3798	0
3810	0
3822	0
3834	0
3846	0
3858	0
3870	0
3882	0
3894	0
3906	0
3918	0
3930	0
3942	0
3954	0
3966	0
