Infrared Spectrum: 2-Propen-1-amine
Formula: C 3 H 7 N
CAS: 107-11-9
State: gas
Origin: Sadtler Research Labs Under US-EPA Contract
1/CM	ABSORBANCE
450	0
462	0.0105659
474	0.00436051
486	0.00259954
498	0.00461208
510	0.0115721
522	0.0212156
534	0.0313621
546	0.0495589
558	0.072787
570	0.0688458
582	0.0716969
594	0.060544
606	0.0602086
618	0.0740448
630	0.0881327
642	0.09199
654	0.0904806
666	0.0830174
678	0.0854493
690	0.0975245
702	0.113038
714	0.139704
726	0.188089
738	0.276306
750	0.427162
762	0.650639
774	0.812816
786	0.795793
798	0.6846
810	0.33056
822	0.154463
834	0.097273
846	0.0763928
858	0.0794955
870	0.112702
882	0.176685
894	0.268758
906	0.379197
918	0.519488
930	0.414332
942	0.301295
954	0.204944
966	0.167796
978	0.176349
990	0.208801
1002	0.216181
1014	0.196139
1026	0.176685
1038	0.170395
1050	0.151863
1062	0.141465
1074	0.0904806
1086	0.0592862
1098	0.0467916
1110	0.0434374
1122	0.0434374
1134	0.0384899
1146	0.0368966
1158	0.0278402
1170	0.0191192
1182	0.0109851
1194	0.0049475
1206	0.0020964
1218	0.00159326
1230	0.0034381
1242	0.00939187
1254	0.0190353
1266	0.030272
1278	0.0351357
1290	0.0370644
1302	0.0361419
1314	0.0391608
1326	0.0460369
1338	0.064066
1350	0.0701036
1362	0.073961
1374	0.0699359
1386	0.0625566
1398	0.0786569
1410	0.11656
1422	0.11874
1434	0.118405
1446	0.0888874
1458	0.0606279
1470	0.0533324
1482	0.0406702
1494	0.0271693
1506	0.020964
1518	0.0167712
1530	0.0182806
1542	0.0222218
1554	0.0255761
1566	0.0352195
1578	0.0495589
1590	0.0747157
1602	0.117818
1614	0.161004
1626	0.19899
1638	0.206873
1650	0.169054
1662	0.12243
1674	0.0472109
1686	0.0212994
1698	0.0129138
1710	0.00805018
1722	0.00779861
1734	0.00771475
1746	0.00578606
1758	0.00654077
1770	0.00679234
1782	0.00813403
1794	0.010482
1806	0.0144232
1818	0.0249052
1830	0.0387415
1842	0.0394123
1854	0.0405024
1866	0.0225573
1878	0.0101466
1890	0.00595378
1902	0.00452822
1914	0.00352195
1926	0.00318653
1938	0.00318653
1950	0.00444437
1962	0.00687619
1974	0.00796632
1986	0.00779861
1998	0.00570221
2010	0.00377352
2022	0.00268339
2034	0.00218026
2046	0.0020964
2058	0.00226411
2070	0.0020964
2082	0.00234797
2094	0.00226411
2106	0.00201254
2118	0.00167712
2130	0.00150941
2142	0.00109013
2154	0.00117398
2166	0.00150941
2178	0.00150941
2190	0.0020964
2202	0.00259954
2214	0.00268339
2226	0.00301882
2238	0.00327038
2250	0.00368966
2262	0.00402509
2274	0.00436051
2286	0.00377352
2298	0.00201254
2310	0.00117398
2322	0.00109013
2334	0.00109013
2346	0.00117398
2358	0.00109013
2370	0.00109013
2382	0.00259954
2394	0.0041928
2406	0.00394123
2418	0.00394123
2430	0.00385738
2442	0.00360581
2454	0.00377352
2466	0.00402509
2478	0.00444437
2490	0.00469594
2502	0.00519907
2514	0.00561835
2526	0.00603763
2538	0.00603763
2550	0.00612149
2562	0.00620534
2574	0.00603763
2586	0.00637306
2598	0.00654077
2610	0.00737933
2622	0.00872102
2634	0.0101466
2646	0.0120753
2658	0.0141717
2670	0.0152618
2682	0.0167712
2694	0.018029
2706	0.0202093
2718	0.023312
2730	0.0269178
2742	0.0304397
2754	0.0329554
2766	0.0368966
2778	0.0394962
2790	0.0498105
2802	0.0711099
2814	0.107168
2826	0.156978
2838	0.212491
2850	0.266746
2862	0.276389
2874	0.277312
2886	0.273958
2898	0.282343
2910	0.300037
2922	0.296012
2934	0.271106
2946	0.230939
2958	0.19203
2970	0.184483
2982	0.192869
2994	0.190018
3006	0.201003
3018	0.155553
3030	0.126119
3042	0.101214
3054	0.0965183
3066	0.124107
3078	0.190353
3090	0.192533
3102	0.185573
3114	0.108594
3126	0.0460369
3138	0.0220541
3150	0.0125784
3162	0.00922416
3174	0.00788246
3186	0.00712776
3198	0.00662462
3210	0.00561835
3222	0.0055345
3234	0.00545064
3246	0.00528293
3258	0.00511522
3270	0.00511522
3282	0.00452822
3294	0.00461208
3306	0.00503136
3318	0.00729547
3330	0.0120753
3342	0.0158488
3354	0.0173582
3366	0.0160165
3378	0.012243
3390	0.0111528
3402	0.0113206
3414	0.0130815
3426	0.0113206
3438	0.00981115
3450	0.00805018
3462	0.00654077
3474	0.00469594
3486	0.00436051
3498	0.00410894
3510	0.00327038
3522	0.00327038
3534	0.00368966
3546	0.00327038
3558	0.00352195
3570	0.00327038
3582	0.0034381
3594	0.00218026
3606	0.00352195
3618	0.00335424
3630	0.00310267
3642	0.00259954
3654	0.00293496
3666	0.00385738
3678	0.00167712
3690	0.00243182
3702	0.00192869
3714	0.00167712
3726	0.0020964
3738	0.00125784
3750	0.00335424
3762	0.00167712
3774	0.00276725
3786	0.00259954
3798	0.00125784
3810	0.00301882
3822	0.00150941
3834	0.00192869
3846	0.00226411
3858	0.00192869
3870	0.00192869
3882	0.00293496
3894	0.00259954
3906	0.00243182
3918	0.0028511
3930	0.00352195
3942	0.00192869
3954	0.00276725
3966	0.00259954
