Infrared Spectrum: ALLYLAMINE
Formula: C3 H7 N
CAS: 107-11-9
State: LIQUID
Boiling point: 52.5 C
Class: COBLENTZ
Instrument: Not specified, most likely a prism, grating, or hybrid spectrometer.
Sampling: TRANSMISSION
Path length: 0.003 CM
Resolution: 4
Origin: WYANDOTTE CHEMICALS CORP., WYANDOTTE, MICHIGAN, USA
MICROMETERS	TRANSMITTANCE
2.061	0.974
2.1018	0.971
2.14259	0.954
2.18339	0.952
2.22419	0.93
2.26499	0.921
2.30578	0.933
2.34658	0.942
2.38738	0.947
2.42817	0.954
2.46897	0.95
2.50977	0.954
2.55056	0.957
2.59136	0.957
2.63216	0.954
2.67296	0.943
2.71375	0.901
2.75455	0.879
2.79535	0.814
2.83614	0.758
2.87694	0.683
2.91774	0.627
2.95854	0.542
2.99933	0.282
3.04013	0.319
3.08093	0.268
3.12172	0.397
3.16252	0.426
3.20332	0.522
3.24412	0.353
3.28491	0.467
3.32571	0.321
3.36651	0.282
3.4073	0.277
3.4481	0.164
3.4889	0.229
3.52969	0.181
3.57049	0.312
3.61129	0.6
3.65209	0.68
3.69288	0.748
3.73368	0.801
3.77448	0.823
3.81527	0.853
3.85607	0.875
3.89687	0.882
3.93767	0.887
3.97846	0.884
4.01926	0.887
4.06006	0.88
4.10085	0.889
4.14165	0.894
4.18245	0.903
4.22324	0.891
4.26404	0.897
4.30484	0.904
4.34564	0.916
4.38643	0.901
4.42723	0.887
4.46803	0.882
4.50882	0.88
4.54962	0.886
4.59042	0.882
4.63122	0.887
4.67201	0.892
4.71281	0.897
4.75361	0.891
4.7944	0.884
4.8352	0.887
4.876	0.877
4.9168	0.87
4.95759	0.877
4.99839	0.87
5.03919	0.848
5.07998	0.819
5.12078	0.826
5.16158	0.835
5.20237	0.835
5.24317	0.829
5.28397	0.823
5.32477	0.826
5.36556	0.801
5.40636	0.767
5.44716	0.736
5.48795	0.726
5.52875	0.778
5.56955	0.821
5.61035	0.829
5.65114	0.829
5.69194	0.829
5.73274	0.818
5.77353	0.797
5.81433	0.778
5.85513	0.75
5.89593	0.69
5.93672	0.646
5.97752	0.586
6.01832	0.477
6.05911	0.124
6.09991	0.282
6.14071	0.316
6.1815	0.268
6.2223	0.26
6.2631	0.301
6.3039	0.389
6.34469	0.455
6.38549	0.515
6.42629	0.566
6.46708	0.605
6.50788	0.646
6.54868	0.663
6.58948	0.68
6.63027	0.671
6.67107	0.671
6.71187	0.659
6.75266	0.627
6.79346	0.515
6.83426	0.396
6.87505	0.411
6.91585	0.457
6.95665	0.406
6.99745	0.241
7.03824	0.287
7.07904	0.403
7.11984	0.556
7.16063	0.615
7.20143	0.595
7.24223	0.593
7.28303	0.549
7.32382	0.552
7.36462	0.562
7.40542	0.557
7.44621	0.564
7.48701	0.534
7.52781	0.557
7.56861	0.629
7.6094	0.661
7.6502	0.653
7.691	0.62
7.73179	0.6
7.77259	0.588
7.81339	0.602
7.85418	0.646
7.89498	0.676
7.93578	0.697
7.97658	0.709
8.01737	0.719
8.05817	0.717
8.09897	0.719
8.13976	0.721
8.18056	0.712
8.22136	0.714
8.26216	0.7
8.30295	0.697
8.34375	0.704
8.38455	0.698
8.42534	0.687
8.46614	0.664
8.50694	0.651
8.54773	0.629
8.58853	0.62
8.62933	0.603
8.67013	0.588
8.71092	0.561
8.75172	0.51
8.79252	0.472
8.83331	0.489
8.87411	0.535
8.91491	0.551
8.95571	0.528
8.9965	0.51
9.0373	0.511
9.0781	0.522
9.11889	0.515
9.15969	0.498
9.20049	0.476
9.24129	0.469
9.28208	0.46
9.32288	0.45
9.36368	0.428
9.40447	0.386
9.44527	0.333
9.48607	0.292
9.52686	0.284
9.56766	0.318
9.60846	0.336
9.64926	0.323
9.69005	0.309
9.73085	0.307
9.77165	0.309
9.81244	0.307
9.85324	0.277
9.89404	0.21
9.93484	0.13
9.97563	0.066
10.0164	0.054
10.0572	0.083
10.098	0.137
10.1388	0.198
10.1796	0.227
10.2204	0.239
10.2612	0.236
10.302	0.232
10.3428	0.222
10.3836	0.204
10.4244	0.19
10.4652	0.168
10.506	0.149
10.5468	0.124
10.5876	0.1
10.6284	0.081
10.6692	0.062
10.71	0.052
10.7508	0.045
10.7916	0.039
10.8324	0.034
10.8732	0.034
10.914	0.028
10.9548	0.034
10.9956	0.034
11.0364	0.042
11.0772	0.054
11.118	0.068
11.1587	0.074
11.1995	0.079
11.2403	0.085
11.2811	0.098
11.3219	0.107
11.3627	0.103
11.4035	0.103
11.4443	0.098
11.4851	0.095
11.5259	0.079
11.5667	0.073
11.6075	0.071
11.6483	0.062
11.6891	0.062
11.7299	0.054
11.7707	0.054
11.8115	0.054
11.8523	0.049
11.8931	0.047
11.9339	0.049
11.9747	0.044
12.0155	0.044
12.0563	0.044
12.0971	0.047
12.1379	0.049
12.1787	0.049
12.2195	0.054
12.2603	0.054
12.3011	0.054
12.3419	0.061
12.3827	0.064
12.4235	0.073
12.4643	0.076
12.5051	0.09
12.5458	0.103
12.5866	0.108
12.6274	0.136
12.6682	0.142
12.709	0.164
12.7498	0.187
12.7906	0.2
12.8314	0.224
12.8722	0.25
12.913	0.26
12.9538	0.287
12.9946	0.304
13.0354	0.321
13.0762	0.345
13.117	0.353
13.1578	0.374
13.1986	0.387
13.2394	0.403
13.2802	0.413
13.321	0.43
13.3618	0.443
13.4026	0.454
13.4434	0.462
13.4842	0.471
13.525	0.477
13.5658	0.488
13.6066	0.494
13.6474	0.5
13.6882	0.505
13.729	0.513
13.7698	0.518
13.8106	0.523
13.8514	0.53
13.8922	0.532
13.9329	0.54
13.9737	0.545
14.0145	0.549
14.0553	0.552
14.0961	0.557
14.1369	0.561
14.1777	0.566
14.2185	0.568
14.2593	0.573
14.3001	0.573
14.3409	0.578
14.3817	0.578
14.4225	0.579
14.4633	0.581
14.5041	0.583
14.5449	0.585
14.5857	0.583
14.6265	0.588
14.6673	0.581
14.7081	0.586
14.7489	0.588
14.7897	0.583
14.8305	0.583
14.8713	0.583
14.9121	0.579
14.9529	0.576
14.9937	0.576
15.0345	0.571
15.0753	0.571
15.1161	0.557
15.1569	0.549
15.1977	0.547
15.2385	0.544
15.2793	0.528
15.32	0.534
15.3608	0.522
15.4016	0.513
15.4424	0.51
15.4832	0.511
15.524	0.51
15.5648	0.508
15.6056	0.515
15.6464	0.517
15.6872	0.528
15.728	0.534
15.7688	0.539
15.8096	0.549
15.8504	0.561
15.8912	0.564
15.932	0.568
15.9728	0.571
