Infrared Spectrum: ALLYL AMINE
Formula: C3 H7 N
CAS: 107-11-9
State: GAS (80 mmHg, N2 ADDED, TOTAL PRESSURE 600 mmHg)
Class: COBLENTZ
Instrument: DOW KBr FOREPRISM-GRATING
Instrument parameters: GRATING CHANGED AT 5.0, 7.5, 15.0 MICRON
Sampling: TRANSMISSION
Path length: 5 CM
Resolution: 2
Origin: DOW CHEMICAL COMPANY
1/CM	TRANSMITTANCE
455	0.8132
464	0.8121
473	0.8155
482	0.818
491	0.8159
500	0.8106
509	0.8049
518	0.7941
527	0.7794
536	0.7573
545	0.7298
554	0.6583
563	0.6622
572	0.6819
581	0.674
590	0.7434
599	0.7613
608	0.7532
617	0.7281
626	0.6953
635	0.6593
644	0.6567
653	0.6757
662	0.7186
671	0.7335
680	0.7398
689	0.7355
698	0.7277
707	0.7095
716	0.6791
725	0.6248
734	0.5296
743	0.3863
752	0.2246
761	0.1075
770	0.0518
779	0.0312
788	0.0364
797	0.0895
806	0.2991
815	0.5293
824	0.6939
833	0.7517
842	0.7651
851	0.7591
860	0.7286
869	0.6566
878	0.5609
887	0.5086
896	0.3788
905	0.2716
914	0.1869
923	0.2445
932	0.3306
941	0.4601
950	0.5902
959	0.6316
968	0.6169
977	0.5574
986	0.4827
995	0.4269
1004	0.4828
1013	0.5312
1022	0.5708
1031	0.5959
1040	0.578
1049	0.5726
1058	0.5786
1067	0.6552
1076	0.7244
1085	0.746
1094	0.763
1103	0.7637
1112	0.7565
1121	0.7646
1130	0.7664
1139	0.7621
1148	0.7817
1157	0.7957
1166	0.8093
1175	0.8229
1184	0.8389
1193	0.8456
1202	0.8485
1211	0.8569
1220	0.8617
1229	0.8547
1238	0.8393
1247	0.8217
1256	0.8025
1265	0.7827
1274	0.7657
1283	0.7565
1292	0.7662
1301	0.7772
1310	0.7757
1319	0.7611
1328	0.7427
1337	0.7165
1346	0.7084
1355	0.7098
1364	0.6992
1373	0.7039
1382	0.7172
1391	0.7136
1400	0.6828
1409	0.6441
1418	0.5842
1427	0.5959
1436	0.6016
1445	0.6733
1454	0.6948
1463	0.7123
1472	0.7307
1481	0.7552
1490	0.7781
1499	0.7966
1508	0.8044
1517	0.8075
1526	0.808
1535	0.8043
1544	0.8001
1553	0.7974
1562	0.7885
1571	0.7723
1580	0.7472
1589	0.7149
1598	0.66
1607	0.6056
1616	0.5436
1625	0.4892
1634	0.4534
1643	0.4863
1652	0.5494
1661	0.6578
1670	0.7774
1679	0.8189
1688	0.8335
1697	0.8404
1706	0.8442
1715	0.8471
1724	0.8468
1733	0.8444
1742	0.847
1751	0.8452
1760	0.8437
1769	0.8422
1778	0.8407
1787	0.8387
1796	0.8322
1805	0.8205
1814	0.7994
1823	0.775
1832	0.7568
1841	0.7555
1850	0.7713
1859	0.8004
1868	0.8328
1877	0.8426
1886	0.847
1895	0.8481
1904	0.8492
1913	0.8508
1922	0.8526
1931	0.8546
1940	0.8542
1949	0.8525
1958	0.8464
1967	0.8404
1976	0.8404
1985	0.8434
1994	0.8509
2003	0.8553
2012	0.8565
2021	0.8574
2030	0.8582
2039	0.8585
2048	0.8588
2057	0.8591
2066	0.8595
2075	0.8598
2084	0.8604
2093	0.8609
2102	0.8615
2111	0.8618
2120	0.8617
2129	0.8615
2138	0.8613
2147	0.8611
2156	0.8611
2165	0.8613
2174	0.8616
2183	0.8617
2192	0.861
2201	0.8621
2210	0.8623
2219	0.8625
2228	0.8627
2237	0.8628
2246	0.863
2255	0.8631
2264	0.8633
2273	0.8635
2282	0.8655
2291	0.8678
2300	0.8702
2309	0.8725
2318	0.8748
2327	0.8767
2336	0.8766
2345	0.8806
2354	0.9072
2363	0.9251
2372	0.8906
2381	0.8676
2390	0.8645
2399	0.8638
2408	0.8648
2417	0.8656
2426	0.8659
2435	0.8658
2444	0.8644
2453	0.8632
2462	0.8621
2471	0.861
2480	0.8599
2489	0.8591
2498	0.8583
2507	0.8575
2516	0.8567
2525	0.856
2534	0.856
2543	0.8603
2552	0.8581
2561	0.8587
2570	0.8595
2579	0.8592
2588	0.8582
2597	0.8565
2606	0.8543
2615	0.852
2624	0.8495
2633	0.8434
2642	0.8374
2651	0.8358
2660	0.8345
2669	0.8333
2678	0.8321
2687	0.8306
2696	0.8276
2705	0.823
2714	0.8165
2723	0.8086
2732	0.7996
2741	0.794
2750	0.7914
2759	0.7933
2768	0.7929
2777	0.7885
2786	0.7784
2795	0.7555
2804	0.7042
2813	0.6607
2822	0.5831
2831	0.4974
2840	0.4269
2849	0.4143
2858	0.4188
2867	0.4225
2876	0.4375
2885	0.4397
2894	0.4295
2903	0.3876
2912	0.3699
2921	0.371
2930	0.3835
2939	0.446
2948	0.5057
2957	0.5479
2966	0.5426
2975	0.4995
2984	0.4971
2993	0.4782
3002	0.4922
3011	0.5663
3020	0.6266
3029	0.6708
3038	0.7102
3047	0.7091
3056	0.672
3065	0.6108
3074	0.4876
3083	0.4613
3092	0.4868
3101	0.5757
3110	0.6836
3119	0.801
3128	0.822
3137	0.8313
3146	0.833
3155	0.8336
3164	0.8343
3173	0.8352
3182	0.8358
3191	0.8361
3200	0.8366
3209	0.8376
3218	0.838
3227	0.8365
3236	0.8344
3245	0.8325
3254	0.8308
3263	0.8299
3272	0.8291
3281	0.8289
3290	0.8285
3299	0.8267
3308	0.8204
3317	0.8096
3326	0.7987
3335	0.793
3344	0.7949
3353	0.8051
3362	0.8167
3371	0.8225
3380	0.8236
3389	0.8235
3398	0.8226
3407	0.8222
3416	0.8244
3425	0.835
3434	0.8411
3443	0.8461
3452	0.8502
3461	0.8539
3470	0.8566
3479	0.8589
3488	0.8612
3497	0.863
3506	0.8645
3515	0.8659
3524	0.8671
3533	0.868
3542	0.8686
3551	0.869
3560	0.8687
3569	0.8683
3578	0.8681
3587	0.8681
3596	0.868
3605	0.868
3614	0.8682
3623	0.8686
3632	0.8689
3641	0.8693
3650	0.8696
3659	0.8699
3668	0.8702
3677	0.8705
3686	0.871
3695	0.8714
3704	0.8718
3713	0.8719
3722	0.872
3731	0.8721
3740	0.8724
3749	0.8726
3758	0.8727
3767	0.8721
3776	0.8716
3785	0.8711
3794	0.8707
