Infrared Spectrum: 4-Pentyn-1-ol
Formula: C 5 H 8 O
CAS: 5390-04-5
State: gas
Instrument: HP-GC/MS/IRD
Origin: NIST Mass Spectrometry Data Center
1/CM	ABSORBANCE
550	0.000416
562	0.000263
574	0.000199
586	0.000189
598	0.000494
610	0.001287
622	0.003987
634	0.01
646	0.005865
658	0.00181
670	0.000494
682	0.000241
694	9e-05
706	0.000147
718	0.00016
730	0.000182
742	0.000134
754	3.4e-05
766	4.9e-05
778	5.2e-05
790	6.4e-05
802	1.8e-05
814	4.3e-05
826	2.4e-05
838	6.1e-05
850	4.4e-05
862	0.000132
874	0.00023
886	0.000384
898	0.000533
910	0.000617
922	0.000659
934	0.000803
946	0.000718
958	0.000641
970	0.000594
982	0.000691
994	0.000944
1006	0.001481
1018	0.00214
1030	0.002758
1042	0.003714
1054	0.004688
1066	0.00442
1078	0.002787
1090	0.001399
1102	0.000784
1114	0.000416
1126	0.000434
1138	0.000478
1150	0.000472
1162	0.000541
1174	0.0006
1186	0.000623
1198	0.000755
1210	0.000772
1222	0.00088
1234	0.001638
1246	0.002449
1258	0.002512
1270	0.001631
1282	0.001004
1294	0.000823
1306	0.000728
1318	0.000811
1330	0.000864
1342	0.000867
1354	0.000803
1366	0.000799
1378	0.000851
1390	0.000898
1402	0.000816
1414	0.000691
1426	0.000791
1438	0.000969
1450	0.00088
1462	0.000645
1474	0.000494
1486	0.000384
1498	0.000222
1510	0.000157
1522	0.000125
1534	0.000101
1546	7.8e-05
1558	9e-05
1570	4.7e-05
1582	5.5e-05
1594	4.9e-05
1606	2.9e-05
1618	2.4e-05
1630	3e-05
1642	3.3e-05
1654	8.2e-05
1666	0.000116
1678	0.000118
1690	6.4e-05
1702	3.7e-05
1714	1.5e-05
1726	3.7e-05
1738	6.6e-05
1750	9e-05
1762	5.7e-05
1774	4e-05
1786	3.3e-05
1798	1.8e-05
1810	1.4e-05
1822	1.2e-05
1834	1.1e-05
1846	1.9e-05
1858	3.5e-05
1870	4.8e-05
1882	3.7e-05
1894	3.3e-05
1906	2e-05
1918	4.2e-05
1930	1e-05
1942	3.5e-05
1954	4.8e-05
1966	5.4e-05
1978	4.2e-05
1990	4.3e-05
2002	5.2e-05
2014	4.4e-05
2026	3.8e-05
2038	5.4e-05
2050	5.5e-05
2062	7.2e-05
2074	8.7e-05
2086	0.000132
2098	0.000236
2110	0.000392
2122	0.000429
2134	0.000288
2146	0.000116
2158	3.1e-05
2170	2.9e-05
2182	5.3e-05
2194	4.1e-05
2206	5.2e-05
2218	5e-05
2230	5.1e-05
2242	3.9e-05
2254	5.2e-05
2266	4.4e-05
2278	3.5e-05
2290	4.7e-05
2302	6.7e-05
2314	5.7e-05
2326	5.4e-05
2338	6.4e-05
2350	4.6e-05
2362	6.2e-05
2374	3.1e-05
2386	5.2e-05
2398	4.8e-05
2410	5.4e-05
2422	2.7e-05
2434	4.3e-05
2446	2.6e-05
2458	4.8e-05
2470	5.1e-05
2482	2.4e-05
2494	1.1e-05
2506	2.3e-05
2518	1.7e-05
2530	4.2e-05
2542	5.6e-05
2554	5.8e-05
2566	4.6e-05
2578	3.5e-05
2590	4.9e-05
2602	8e-05
2614	9.1e-05
2626	6.7e-05
2638	0.000105
2650	0.000115
2662	0.000124
2674	0.00014
2686	0.000191
2698	0.000201
2710	0.000184
2722	0.000222
2734	0.000243
2746	0.000264
2758	0.000256
2770	0.000306
2782	0.000342
2794	0.000365
2806	0.000383
2818	0.000494
2830	0.000635
2842	0.000942
2854	0.001429
2866	0.002003
2878	0.002456
2890	0.002716
2902	0.002769
2914	0.003165
2926	0.004088
2938	0.004945
2950	0.005242
2962	0.00437
2974	0.002743
2986	0.001472
2998	0.000728
3010	0.000331
3022	0.000265
3034	0.000192
3046	0.000116
3058	7.9e-05
3070	8.9e-05
3082	7.3e-05
3094	6.3e-05
3106	6e-05
3118	6.4e-05
3130	5.6e-05
3142	4.8e-05
3154	4.1e-05
3166	5.3e-05
3178	2.9e-05
3190	4.5e-05
3202	7.8e-05
3214	3.7e-05
3226	5.5e-05
3238	0.000126
3250	5e-05
3262	0.000152
3274	0.000308
3286	0.000584
3298	0.001328
3310	0.001986
3322	0.00339
3334	0.00301
3346	0.001277
3358	0.000447
3370	0.000244
3382	0.00015
3394	6.3e-05
3406	4.3e-05
3418	3.9e-05
3430	5.8e-05
3442	4.3e-05
3454	7.8e-05
3466	9.6e-05
3478	7e-05
3490	0.000105
3502	5.9e-05
3514	7e-05
3526	5.6e-05
3538	6.6e-05
3550	3.1e-05
3562	3.6e-05
3574	5.6e-05
3586	0.000109
3598	0.000154
3610	0.000332
3622	0.000481
3634	0.000617
3646	0.000653
3658	0.000949
3670	0.001121
3682	0.000964
3694	0.000534
3706	0.000245
3718	0.000203
3730	0.000159
3742	0.000114
3754	7.4e-05
3766	7.8e-05
3778	6.6e-05
3790	6.3e-05
3802	8.7e-05
3814	9.9e-05
3826	0.000127
3838	0.000104
