Infrared Spectrum: 1,2-DIBROMO-1,2-DICHLORO ETHANE
Formula: C2 H2 Br2 Cl2
CAS: 683-68-1
State: SOLUTION (10% CCl4 FOR 2.5-7.5, 10% CS2 FOR 7.5-16 MICRONS)
Class: COBLENTZ
Instrument: Not specified, most likely a prism, grating, or hybrid spectrometer.
Sampling: TRANSMISSION
Path length: 0.01 CM, 0.01 CM
Resolution: 4
Origin: DOW CHEMICAL COMPANY
MICROMETERS	TRANSMITTANCE
2.051	0.841
2.09112	0.843
2.13124	0.844
2.17136	0.841
2.21148	0.838
2.25159	0.834
2.29171	0.83
2.33183	0.83
2.37195	0.83
2.41207	0.834
2.45219	0.841
2.49231	0.846
2.53243	0.851
2.57254	0.853
2.61266	0.849
2.65278	0.849
2.6929	0.851
2.73302	0.853
2.77314	0.854
2.81326	0.856
2.85338	0.858
2.89349	0.854
2.93361	0.856
2.97373	0.859
3.01385	0.859
3.05397	0.858
3.09409	0.858
3.13421	0.856
3.17433	0.856
3.21444	0.853
3.25456	0.834
3.29468	0.762
3.3348	0.752
3.37492	0.867
3.41504	0.861
3.45516	0.861
3.49528	0.863
3.5354	0.863
3.57551	0.861
3.61563	0.861
3.65575	0.863
3.69587	0.863
3.73599	0.861
3.77611	0.863
3.81623	0.861
3.85635	0.863
3.89646	0.863
3.93658	0.859
3.9767	0.859
4.01682	0.858
4.05694	0.856
4.09706	0.863
4.13718	0.861
4.1773	0.859
4.21741	0.856
4.25753	0.856
4.29765	0.861
4.33777	0.866
4.37789	0.867
4.41801	0.871
4.45813	0.872
4.49825	0.869
4.53836	0.869
4.57848	0.869
4.6186	0.869
4.65872	0.871
4.69884	0.871
4.73896	0.869
4.77908	0.871
4.8192	0.871
4.85932	0.872
4.89943	0.871
4.93955	0.872
4.97967	0.874
5.01979	0.874
5.05991	0.872
5.10003	0.871
5.14015	0.872
5.18027	0.872
5.22038	0.874
5.2605	0.874
5.30062	0.874
5.34074	0.876
5.38086	0.876
5.42098	0.876
5.4611	0.876
5.50122	0.874
5.54133	0.876
5.58145	0.876
5.62157	0.876
5.66169	0.876
5.70181	0.876
5.74193	0.881
5.78205	0.882
5.82217	0.882
5.86228	0.879
5.9024	0.879
5.94252	0.879
5.98264	0.881
6.02276	0.882
6.06288	0.884
6.103	0.892
6.14312	0.897
6.18323	0.899
6.22335	0.9
6.26347	0.902
6.30359	0.902
6.34371	0.904
6.38383	0.902
6.42395	0.9
6.46407	0.9
6.50419	0.899
6.5443	0.891
6.58442	0.889
6.62454	0.894
6.66466	0.896
6.70478	0.897
6.7449	0.897
6.78502	0.897
6.82514	0.897
6.86525	0.897
6.90537	0.896
6.94549	0.896
6.98561	0.896
7.02573	0.897
7.06585	0.897
7.10597	0.896
7.14609	0.892
7.1862	0.894
7.22632	0.894
7.26644	0.892
7.30656	0.892
7.34668	0.896
7.3868	0.891
7.42692	0.887
7.46704	0.891
7.50715	0.882
7.54727	0.882
7.58739	0.884
7.62751	0.882
7.66763	0.872
7.70775	0.866
7.74787	0.863
7.78799	0.834
7.82811	0.788
7.86822	0.759
7.90834	0.744
7.94846	0.783
7.98858	0.8
8.0287	0.831
8.06882	0.823
8.10894	0.81
8.14906	0.81
8.18917	0.828
8.22929	0.849
8.26941	0.851
8.30953	0.839
8.34965	0.808
8.38977	0.727
8.42989	0.665
8.47001	0.623
8.51012	0.678
8.55024	0.668
8.59036	0.589
8.63048	0.582
8.6706	0.622
8.71072	0.702
8.75084	0.79
8.79096	0.846
8.83107	0.871
8.87119	0.876
8.91131	0.879
8.95143	0.889
8.99155	0.899
9.03167	0.9
9.07179	0.9
9.11191	0.9
9.15203	0.902
9.19214	0.902
9.23226	0.902
9.27238	0.902
9.3125	0.902
9.35262	0.9
9.39274	0.9
9.43286	0.9
9.47298	0.9
9.51309	0.899
9.55321	0.897
9.59333	0.891
9.63345	0.884
9.67357	0.879
9.71369	0.867
9.75381	0.828
9.79393	0.739
9.83404	0.693
9.87416	0.727
9.91428	0.815
9.9544	0.853
9.99452	0.872
10.0346	0.881
10.0748	0.884
10.1149	0.884
10.155	0.886
10.1951	0.889
10.2352	0.889
10.2754	0.889
10.3155	0.891
10.3556	0.889
10.3957	0.886
10.4358	0.882
10.4759	0.882
10.5161	0.882
10.5562	0.882
10.5963	0.882
10.6364	0.882
10.6765	0.879
10.7167	0.879
10.7568	0.884
10.7969	0.886
10.837	0.891
10.8771	0.891
10.9173	0.886
10.9574	0.887
10.9975	0.886
11.0376	0.887
11.0777	0.887
11.1178	0.887
11.158	0.892
11.1981	0.892
11.2382	0.891
11.2783	0.891
11.3184	0.892
11.3586	0.892
11.3987	0.892
11.4388	0.889
11.4789	0.886
11.519	0.882
11.5592	0.882
11.5993	0.884
11.6394	0.884
11.6795	0.884
11.7196	0.889
11.7597	0.896
11.7999	0.899
11.84	0.897
11.8801	0.897
11.9202	0.892
11.9603	0.889
12.0005	0.886
12.0406	0.887
12.0807	0.887
12.1208	0.882
12.1609	0.879
12.2011	0.876
12.2412	0.871
12.2813	0.869
12.3214	0.861
12.3615	0.849
12.4016	0.833
12.4418	0.815
12.4819	0.787
12.522	0.727
12.5621	0.608
12.6022	0.485
12.6424	0.369
12.6825	0.351
12.7226	0.399
12.7627	0.462
12.8028	0.549
12.843	0.552
12.8831	0.516
12.9232	0.466
12.9633	0.46
13.0034	0.524
13.0435	0.6
13.0837	0.617
13.1238	0.579
13.1639	0.465
13.204	0.328
13.2441	0.207
13.2843	0.194
13.3244	0.207
13.3645	0.209
13.4046	0.204
13.4447	0.199
13.4849	0.232
13.525	0.311
13.5651	0.425
13.6052	0.481
13.6453	0.49
13.6854	0.442
13.7256	0.432
13.7657	0.486
13.8058	0.597
13.8459	0.696
13.886	0.747
13.9262	0.785
13.9663	0.803
14.0064	0.823
14.0465	0.843
14.0866	0.843
14.1268	0.828
14.1669	0.797
14.207	0.76
14.2471	0.757
14.2872	0.778
14.3273	0.81
14.3675	0.831
14.4076	0.841
14.4477	0.843
14.4878	0.843
14.5279	0.843
14.5681	0.843
14.6082	0.834
14.6483	0.823
14.6884	0.803
14.7285	0.772
14.7687	0.727
14.8088	0.666
14.8489	0.577
14.889	0.508
14.9291	0.45
14.9692	0.424
15.0094	0.427
15.0495	0.458
15.0896	0.519
15.1297	0.585
15.1698	0.64
15.21	0.681
15.2501	0.712
15.2902	0.732
15.3303	0.772
15.3704	0.777
15.4106	0.77
15.4507	0.755
15.4908	0.744
15.5309	0.734
15.571	0.729
15.6111	0.726
15.6513	0.722
15.6914	0.722
15.7315	0.719
15.7716	0.717
15.8117	0.716
15.8519	0.712
15.892	0.712
15.9321	0.712
