Infrared Spectrum: Ethane, 1,2-dibromo-1,2-dichloro-
Formula: C 2 H 2 Br 2 Cl 2
CAS: 683-68-1
State: gas
Origin: Sadtler Research Labs Under US-EPA Contract
1/CM	ABSORBANCE
450	0.0268803
462	0.0279092
474	0.0290025
486	0.0482303
498	0.0171057
510	0.00308674
522	0.00752392
534	0.0405134
546	0.0395488
558	0.017813
570	0.00154337
582	0.0112537
594	0.0434072
606	0.103791
618	0.238065
630	0.217808
642	0.087972
654	0.11974
666	0.193178
678	0.306294
690	0.0321535
702	0.04315
714	0.0534391
726	0.123534
738	0.332596
750	0.598762
762	0.536835
774	0.286616
786	0.304494
798	0.390601
810	0.0925378
822	0.011511
834	0.0137617
846	0.0116396
858	0.0114466
870	0.0104177
882	0.00578763
894	0.00765253
906	0.00803838
918	0.00295812
930	0.00488733
942	0.00372981
954	0.00591624
966	0.0055304
978	0.00694516
990	0.00893867
1002	0.0215428
1014	0.0603843
1026	0.0369122
1038	0.00797407
1050	0.00321535
1062	0.00443718
1074	0.00694516
1086	0.00771684
1098	0.00604486
1110	0.00636639
1122	0.0108679
1134	0.0212213
1146	0.0933095
1158	0.169127
1170	0.159417
1182	0.131122
1194	0.0805767
1206	0.0142118
1218	0.0162054
1230	0.028488
1242	0.0273305
1254	0.0527317
1266	0.0902227
1278	0.0667507
1290	0.021993
1302	0.00906729
1314	0.00861714
1326	0.00784545
1338	0.0082956
1350	0.00835991
1362	0.00913159
1374	0.00752392
1386	0.00758823
1398	0.00707377
1410	0.00649501
1422	0.00617347
1434	0.00668793
1446	0.00540179
1458	0.00347258
1470	0.00495164
1482	0.00495164
1494	0.00398703
1506	0.00192921
1518	0.00572332
1530	0.00572332
1542	0.00315104
1554	0.00668793
1566	0.0046301
1578	0.00488733
1590	0.00443718
1602	0.0054661
1614	0.00270089
1626	0.00405134
1638	0.00392273
1650	0.00649501
1662	0.00295812
1674	0.00289382
1686	0.00398703
1698	0.00392273
1710	0.00527317
1722	0.00630209
1734	0.0055304
1746	0.00623778
1758	0.00591624
1770	0.00488733
1782	0.00598055
1794	0.00340827
1806	0.00372981
1818	0.00405134
1830	0.00372981
1842	0.00122183
1854	0.00315104
1866	0.00295812
1878	0.00282951
1890	0.0027652
1902	0.00244367
1914	0.00270089
1926	0.00192921
1938	0.00199352
1950	0.00237936
1962	0.00282951
1974	0.00295812
1986	0.00270089
1998	0.00147906
2010	0.00237936
2022	0.00192921
2034	0.00334396
2046	0.00212213
2058	0.0018649
2070	0.0018649
2082	0.00250797
2094	0.000771684
2106	0.0018006
2118	0.00141475
2130	0.00141475
2142	0.000578763
2154	0.00128614
2166	0.0018006
2178	0.0018006
2190	0.00199352
2202	0.00141475
2214	0.00122183
2226	0.00147906
2238	0.00173629
2250	0.00102891
2262	0.00109322
2274	0.000771684
2286	0.00064307
2298	0.00141475
2310	0.00263659
2322	0.00122183
2334	0.00135045
2346	0.000128614
2358	6.4307e-05
2370	0.00064307
2382	0.00218644
2394	0.00282951
2406	0.0027652
2418	0.00392273
2430	0.00347258
2442	0.0045658
2454	0.00372981
2466	0.00308674
2478	0.00379411
2490	0.0055304
2502	0.00270089
2514	0.00160768
2526	0.00154337
2538	0.00199352
2550	0.00225075
2562	0.00199352
2574	0.00192921
2586	0.00205782
2598	0.0018649
2610	0.00205782
2622	0.00205782
2634	0.00218644
2646	0.0018649
2658	0.00199352
2670	0.00212213
2682	0.00218644
2694	0.00237936
2706	0.00237936
2718	0.00237936
2730	0.00237936
2742	0.00244367
2754	0.00257228
2766	0.00250797
2778	0.00237936
2790	0.0027652
2802	0.00270089
2814	0.00257228
2826	0.00257228
2838	0.00270089
2850	0.0027652
2862	0.00327966
2874	0.00347258
2886	0.00334396
2898	0.00315104
2910	0.00353689
2922	0.00340827
2934	0.00475872
2946	0.00501595
2958	0.00450149
2970	0.00482303
2982	0.0064307
2994	0.0294526
3006	0.0481016
3018	0.0267517
3030	0.0134402
3042	0.00379411
3054	0.00398703
3066	0.00379411
3078	0.00385842
3090	0.00379411
3102	0.00398703
3114	0.0027652
3126	0.00308674
3138	0.00347258
3150	0.00360119
3162	0.00340827
3174	0.00244367
3186	0.00372981
3198	0.00353689
3210	0.00289382
3222	0.00334396
3234	0.00334396
3246	0.00321535
3258	0.00340827
3270	0.00282951
3282	0.00385842
3294	0.00282951
3306	0.00360119
3318	0.00353689
3330	0.00327966
3342	0.00347258
3354	0.00411565
3366	0.0036655
3378	0.00385842
3390	0.00443718
3402	0.00289382
3414	0.00424426
3426	0.00398703
3438	0.00392273
3450	0.00360119
3462	0.0046301
3474	0.00437288
3486	0.00417996
3498	0.00430857
3510	0.00437288
3522	0.00430857
3534	0.00495164
3546	0.00469441
3558	0.00610917
3570	0.0054661
3582	0.00450149
3594	0.0045658
3606	0.0027652
3618	0.00411565
3630	0.00167198
3642	0.00469441
3654	0.00392273
3666	0.00135045
3678	0.00720238
3690	0.00475872
3702	0.0027652
3714	0.00469441
3726	0.00610917
3738	0.00778115
3750	0.00237936
3762	0.00540179
3774	0.00604486
3786	0.00630209
3798	0.00430857
3810	0.00437288
3822	0.00797407
3834	0.00617347
3846	0.00199352
3858	0.00848852
3870	0.00636639
3882	0.00533748
3894	0.00655931
3906	0.00578763
3918	0.00520887
3930	0.00835991
3942	0.00508025
3954	0.00411565
3966	0.00212213
