Infrared Spectrum: ETHENE, 1-BROMO-1-CHLORO-
Formula: C2 H2 Br Cl
CAS: 17759-85-2
State: GAS (10 mmHg, N2 ADDED, TOTAL PRESSURE 600 mmHg)
Class: COBLENTZ
Instrument: BECKMAN IR-9 (GRATING)
Instrument parameters: ORDER CHANGES: 670, 1200, 2000 CM^-^1
Sampling: TRANSMISSION
Path length: 10 CM CELL
Resolution: 2
Origin: DOW CHEMICAL COMPANY
1/CM	TRANSMITTANCE
392.138	0.609
401.311	0.592
410.484	0.59
419.657	0.59
428.829	0.533
438.002	0.7
447.175	0.783
456.348	0.853
465.521	0.886
474.694	0.894
483.866	0.898
493.039	0.911
502.212	0.917
511.385	0.919
520.558	0.8531
529.731	0.723
538.903	0.692
548.076	0.8709
557.249	0.935
566.422	0.969
575.595	0.975
584.768	0.979
593.94	0.979
603.113	0.983
612.286	0.977
621.459	0.975
630.632	0.977
639.805	0.979
648.977	0.977
658.15	0.979
667.323	0.975
676.496	0.964
685.669	0.96
694.842	0.946
704.014	0.938
713.187	0.931
722.36	0.927
731.533	0.915
740.706	0.826
749.879	0.345
759.051	0.064
768.224	0.07
777.397	0.7327
786.57	0.927
795.743	0.958
804.916	0.96
814.088	0.958
823.261	0.942
832.434	0.946
841.607	0.942
850.78	0.8379
859.953	0.6171
869.126	0.417
878.298	0.5019
887.471	0.479
896.644	0.76
905.817	0.923
914.99	0.969
924.163	0.973
933.335	0.977
942.508	0.981
951.681	0.981
960.854	0.971
970.027	0.975
979.2	0.977
988.372	0.971
997.545	0.96
1006.72	0.96
1015.89	0.966
1025.06	0.971
1034.24	0.977
1043.41	0.95
1052.58	0.923
1061.76	0.7159
1070.93	0.1693
1080.1	0.256
1089.27	0.3182
1098.45	0.7292
1107.62	0.485
1116.79	0.46
1125.96	0.7931
1135.14	0.962
1144.31	0.983
1153.48	0.985
1162.66	0.987
1171.83	0.985
1181	0.985
1190.17	0.985
1199.35	0.987
1208.52	0.989
1217.69	0.991
1226.87	0.995
1236.04	1
1245.21	0.997
1254.38	0.995
1263.56	0.991
1272.73	0.983
1281.9	0.948
1291.08	0.913
1300.25	0.929
1309.42	0.96
1318.59	0.985
1327.77	0.997
1336.94	1
1346.11	0.997
1355.29	0.991
1364.46	0.983
1373.63	0.983
1382.8	0.981
1391.98	0.983
1401.15	0.987
1410.32	0.991
1419.5	0.991
1428.67	0.991
1437.84	0.991
1447.01	0.993
1456.19	0.993
1465.36	0.989
1474.53	0.981
1483.71	0.958
1492.88	0.969
1502.05	0.94
1511.22	0.919
1520.4	0.919
1529.57	0.958
1538.74	0.966
1547.92	0.979
1557.09	0.979
1566.26	0.973
1575.43	0.913
1584.61	0.702
1593.78	0.3861
1602.95	0.243
1612.13	0.2329
1621.3	0.4457
1630.47	0.741
1639.64	0.894
1648.82	0.938
1657.99	0.962
1667.16	0.979
1676.34	0.983
1685.51	0.981
1694.68	0.985
1703.85	0.983
1713.03	0.983
1722.2	0.979
1731.37	0.973
1740.54	0.954
1749.72	0.923
1758.89	0.925
1768.06	0.952
1777.24	0.977
1786.41	0.983
1795.58	0.981
1804.75	0.981
1813.93	0.979
1823.1	0.975
1832.27	0.979
1841.45	0.975
1850.62	0.981
1859.79	0.983
1868.96	0.983
1878.14	0.987
1887.31	0.987
1896.48	0.987
1905.66	0.989
1914.83	0.989
1924	0.987
1933.17	0.983
1942.35	0.983
1951.52	0.983
1960.69	0.981
1969.87	0.981
1979.04	0.981
1988.21	0.981
1997.38	0.979
2006.56	0.986
2015.73	0.983
2024.9	0.988
2034.08	0.989
2043.25	0.9899
2052.42	0.991
2061.59	0.991
2070.77	0.9911
2079.94	0.9919
2089.11	0.991
2098.29	0.991
2107.46	0.991
2116.63	0.993
2125.8	0.991
2134.98	0.991
2144.15	0.989
2153.32	0.991
2162.5	0.991
2171.67	0.991
2180.84	0.991
2190.01	0.991
2199.19	0.993
2208.36	0.991
2217.53	0.991
2226.71	0.991
2235.88	0.989
2245.05	0.9898
2254.22	0.991
2263.4	0.989
2272.57	0.989
2281.74	0.989
2290.92	0.989
2300.09	0.991
2309.26	0.9927
2318.43	0.993
2327.61	0.993
2336.78	0.9957
2345.95	0.997
2355.13	0.993
2364.3	0.9913
2373.47	0.989
2382.64	0.9834
2391.82	0.9836
2400.99	0.985
2410.16	0.987
2419.33	0.987
2428.51	0.985
2437.68	0.983
2446.85	0.983
2456.03	0.981
2465.2	0.981
2474.37	0.981
2483.54	0.981
2492.72	0.981
2501.89	0.981
2511.06	0.981
2520.24	0.981
2529.41	0.981
2538.58	0.9805
2547.75	0.9775
2556.93	0.977
2566.1	0.977
2575.27	0.977
2584.45	0.977
2593.62	0.977
2602.79	0.975
2611.96	0.977
2621.14	0.977
2630.31	0.971
2639.48	0.9724
2648.66	0.9746
2657.83	0.971
2667	0.969
2676.17	0.966
2685.35	0.966
2694.52	0.966
2703.69	0.966
2712.87	0.966
2722.04	0.9665
2731.21	0.969
2740.38	0.966
2749.56	0.966
2758.73	0.964
2767.9	0.964
2777.08	0.964
2786.25	0.964
2795.42	0.964
2804.59	0.962
2813.77	0.962
2822.94	0.96
2832.11	0.96
2841.29	0.9588
2850.46	0.9558
2859.63	0.954
2868.8	0.956
2877.98	0.954
2887.15	0.954
2896.32	0.954
2905.5	0.952
2914.67	0.9488
2923.84	0.944
2933.01	0.946
2942.19	0.9499
2951.36	0.9469
2960.53	0.946
2969.71	0.946
2978.88	0.9459
2988.05	0.944
2997.22	0.9461
3006.4	0.948
3015.57	0.946
3024.74	0.944
3033.91	0.9439
3043.09	0.942
3052.26	0.9421
3061.43	0.942
3070.61	0.944
3079.78	0.94
3088.95	0.938
3098.12	0.94
3107.3	0.935
3116.47	0.933
3125.64	0.933
3134.82	0.931
3143.99	0.929
3153.16	0.931
3162.33	0.931
3171.51	0.9281
3180.68	0.9231
3189.85	0.9201
3199.03	0.9131
3208.2	0.9011
3217.37	0.9
3226.54	0.9053
3235.72	0.904
3244.89	0.9029
3254.06	0.904
3263.24	0.904
3272.41	0.9022
3281.58	0.898
3290.75	0.896
3299.93	0.892
3309.1	0.8882
3318.27	0.8812
3327.45	0.8733
3336.62	0.8702
3345.79	0.8632
3354.96	0.8515
3364.14	0.8402
3373.31	0.8292
3382.48	0.8183
3391.66	0.8102
3400.83	0.8033
3410	0.799
3419.17	0.8007
3428.35	0.8077
3437.52	0.8157
3446.69	0.8254
3455.87	0.8337
3465.04	0.8387
3474.21	0.8487
3483.38	0.8563
3492.56	0.8686
3501.73	0.8716
3510.9	0.8776
3520.08	0.8832
3529.25	0.888
3538.42	0.89
3547.59	0.8916
3556.77	0.8926
3565.94	0.894
3575.11	0.896
3584.29	0.896
3593.46	0.896
3602.63	0.896
3611.8	0.896
3620.98	0.896
3630.15	0.894
3639.32	0.894
3648.5	0.892
3657.67	0.892
3666.84	0.89
3676.01	0.89
3685.19	0.892
3694.36	0.892
3703.53	0.892
3712.7	0.8905
3721.88	0.89
3731.05	0.89
3740.22	0.89
3749.4	0.89
3758.57	0.89
3767.74	0.89
3776.91	0.8896
3786.09	0.8866
