Infrared Spectrum: ETHENE, 1-BROMO-1-CHLORO-
Formula: C2 H2 Br Cl
CAS: 17759-85-2
State: SOLUTION (5% IN CCl4 FOR 3800-1330 AND 5% IN CS2 FOR 1330-400 CM^-^1)
Class: COBLENTZ III
Instrument: BECKMAN IR-9 (GRATING)
Instrument parameters: ORDER CHANGES AT 670, 1200, 2000 CM^-^1
Sampling: TRANSMISSION
Path length: 0.011, 0.011 CM
Resolution: 4
Origin: DOW CHEMICAL COMPANY
1/CM	TRANSMITTANCE
400.87	0.014
409.566	0.232
418.261	0.453
426.957	0.51
435.653	0.7
444.348	0.772
453.044	0.814
461.74	0.851
470.435	0.871
479.131	0.895
487.827	0.905
496.522	0.915
505.218	0.927
513.914	0.931
522.609	0.881
531.305	0.7871
540.001	0.937
548.696	0.953
557.392	0.959
566.088	0.965
574.783	0.965
583.479	0.964
592.175	0.97
600.87	0.967
609.566	0.961
618.262	0.944
626.958	0.942
635.653	0.94
644.349	0.919
653.045	0.892
661.74	0.907
670.436	0.934
679.132	0.937
687.827	0.934
696.523	0.935
705.219	0.937
713.914	0.927
722.61	0.915
731.306	0.882
740.001	0.7089
748.697	0.2529
757.393	0.5641
766.088	0.854
774.784	0.916
783.48	0.934
792.175	0.945
800.871	0.953
809.567	0.956
818.262	0.957
826.958	0.957
835.654	0.937
844.349	0.833
853.045	0.743
861.741	0.648
870.436	0.2159
879.132	0.6681
887.828	0.855
896.523	0.919
905.219	0.948
913.915	0.96
922.61	0.968
931.306	0.968
940.002	0.968
948.697	0.968
957.393	0.97
966.089	0.964
974.784	0.97
983.48	0.963
992.176	0.952
1000.87	0.957
1009.57	0.953
1018.26	0.942
1026.96	0.933
1035.65	0.911
1044.35	0.88
1053.05	0.7499
1061.74	0.3179
1070.44	0.4634
1079.13	0.811
1087.83	0.832
1096.52	0.795
1105.22	0.644
1113.92	0.832
1122.61	0.877
1131.31	0.893
1140	0.9
1148.7	0.907
1157.39	0.914
1166.09	0.92
1174.78	0.929
1183.48	0.931
1192.18	0.94
1200.87	0.94
1209.57	0.955
1218.26	0.953
1226.96	0.957
1235.65	0.955
1244.35	0.956
1253.05	0.957
1261.74	0.957
1270.44	0.948
1279.13	0.934
1287.83	0.952
1296.52	0.948
1305.22	0.964
1313.92	0.964
1322.61	0.961
1331.31	0.946
1340	0.95
1348.7	0.946
1357.39	0.942
1366.09	0.944
1374.79	0.944
1383.48	0.937
1392.18	0.941
1400.87	0.94
1409.57	0.935
1418.26	0.933
1426.96	0.941
1435.66	0.949
1444.35	0.95
1453.05	0.946
1461.74	0.941
1470.44	0.933
1479.13	0.912
1487.83	0.877
1496.52	0.814
1505.22	0.776
1513.92	0.734
1522.61	0.69
1531.31	0.63
1540	0.55
1548.7	0.456
1557.39	0.47
1566.09	0.568
1574.79	0.599
1583.48	0.598
1592.18	0.4499
1600.87	0.0849
1609.57	0.4356
1618.26	0.794
1626.96	0.865
1635.66	0.892
1644.35	0.905
1653.05	0.922
1661.74	0.934
1670.44	0.94
1679.13	0.948
1687.83	0.952
1696.53	0.955
1705.22	0.955
1713.92	0.956
1722.61	0.948
1731.31	0.948
1740	0.94
1748.7	0.922
1757.4	0.895
1766.09	0.929
1774.79	0.94
1783.48	0.941
1792.18	0.926
1800.87	0.92
1809.57	0.908
1818.26	0.892
1826.96	0.926
1835.66	0.95
1844.35	0.956
1853.05	0.957
1861.74	0.959
1870.44	0.964
1879.13	0.967
1887.83	0.967
1896.53	0.968
1905.22	0.968
1913.92	0.965
1922.61	0.97
1931.31	0.971
1940	0.97
1948.7	0.97
1957.4	0.971
1966.09	0.97
1974.79	0.971
1983.48	0.97
1992.18	0.967
2000.87	0.956
2009.57	0.967
2018.27	0.964
2026.96	0.969
2035.66	0.972
2044.35	0.972
2053.05	0.9735
2061.74	0.973
2070.44	0.9705
2079.13	0.9755
2087.83	0.973
2096.53	0.978
2105.22	0.979
2113.92	0.979
2122.61	0.982
2131.31	0.9775
2140	0.975
2148.7	0.976
2157.4	0.979
2166.09	0.975
2174.79	0.9755
2183.48	0.976
2192.18	0.975
2200.87	0.976
2209.57	0.9785
2218.27	0.976
2226.96	0.976
2235.66	0.975
2244.35	0.969
2253.05	0.9675
2261.74	0.9645
2270.44	0.96
2279.14	0.956
2287.83	0.951
2296.53	0.946
2305.22	0.9455
2313.92	0.946
2322.61	0.946
2331.31	0.946
2340.01	0.9485
2348.7	0.951
2357.4	0.957
2366.09	0.954
2374.79	0.957
2383.48	0.966
2392.18	0.974
2400.87	0.9755
2409.57	0.975
2418.27	0.975
2426.96	0.975
2435.66	0.978
2444.35	0.98
2453.05	0.976
2461.74	0.976
2470.44	0.975
2479.14	0.975
2487.83	0.975
2496.53	0.9755
2505.22	0.979
2513.92	0.977
2522.61	0.979
2531.31	0.978
2540.01	0.976
2548.7	0.9745
2557.4	0.975
2566.09	0.976
2574.79	0.976
2583.48	0.9745
2592.18	0.9735
2600.88	0.975
2609.57	0.972
2618.27	0.975
2626.96	0.975
2635.66	0.972
2644.35	0.972
2653.05	0.971
2661.75	0.9695
2670.44	0.966
2679.14	0.968
2687.83	0.971
2696.53	0.971
2705.22	0.968
2713.92	0.97
2722.61	0.971
2731.31	0.97
2740.01	0.969
2748.7	0.97
2757.4	0.9705
2766.09	0.971
2774.79	0.97
2783.48	0.97
2792.18	0.9705
2800.88	0.968
2809.57	0.968
2818.27	0.9705
2826.96	0.971
2835.66	0.969
2844.35	0.969
2853.05	0.969
2861.75	0.966
2870.44	0.964
2879.14	0.964
2887.83	0.9645
2896.53	0.963
2905.22	0.961
2913.92	0.961
2922.62	0.959
2931.31	0.956
2940.01	0.952
2948.7	0.9555
2957.4	0.954
2966.09	0.951
2974.79	0.9445
2983.48	0.9445
2992.18	0.9505
3000.88	0.9525
3009.57	0.949
3018.27	0.947
3026.96	0.9415
3035.66	0.899
3044.35	0.93
3053.05	0.9425
3061.75	0.946
3070.44	0.948
3079.14	0.949
3087.83	0.948
3096.53	0.9455
3105.22	0.944
3113.92	0.939
3122.62	0.9265
3131.31	0.907
3140.01	0.9305
3148.7	0.9375
3157.4	0.9405
3166.09	0.944
3174.79	0.944
3183.49	0.941
3192.18	0.934
3200.88	0.916
3209.57	0.926
3218.27	0.936
3226.96	0.943
3235.66	0.945
3244.36	0.944
3253.05	0.942
3261.75	0.944
3270.44	0.942
3279.14	0.94
3287.83	0.937
3296.53	0.938
3305.22	0.94
3313.92	0.935
3322.62	0.935
3331.31	0.9345
3340.01	0.934
3348.7	0.93
3357.4	0.929
3366.09	0.9305
3374.79	0.9265
3383.49	0.925
3392.18	0.9255
3400.88	0.9265
3409.57	0.923
3418.27	0.9255
3426.96	0.925
3435.66	0.923
3444.36	0.926
3453.05	0.9245
3461.75	0.9245
3470.44	0.923
3479.14	0.9265
3487.83	0.9305
3496.53	0.928
3505.23	0.927
3513.92	0.931
3522.62	0.9295
3531.31	0.929
3540.01	0.931
3548.7	0.9305
3557.4	0.932
3566.1	0.934
3574.79	0.935
3583.49	0.937
3592.18	0.937
3600.88	0.9365
3609.57	0.939
3618.27	0.938
3626.96	0.9455
3635.66	0.945
3644.36	0.9475
3653.05	0.948
3661.75	0.9505
3670.44	0.955
3679.14	0.956
3687.83	0.955
3696.53	0.9555
3705.23	0.9555
3713.92	0.9525
3722.62	0.951
3731.31	0.956
3740.01	0.953
3748.7	0.9525
3757.4	0.9525
3766.1	0.956
3774.79	0.953
3783.49	0.954
3792.18	0.953
