Infrared Spectrum: ETHENE, 1-BROMO-1-CHLORO-
Formula: C2 H2 Br Cl
CAS: 17759-85-2
State: GAS (10 mmHg DILUTED TO A TOTAL PRESSURE OF 600 mmHg WITH N2)
Class: COBLENTZ
Instrument: BECKMAN IR-9 (GRATING)
Instrument parameters: ORDER CHANGES AT 670, 1200, 2000 CM^-^1
Sampling: TRANSMISSION
Path length: 10 CM CELL
Resolution: 4
Origin: DOW CHEMICAL COMPANY
1/CM	TRANSMITTANCE
390.415	0.615
399.182	0.595
407.949	0.589
416.715	0.589
425.482	0.591
434.249	0.686
443.016	0.747
451.783	0.828
460.549	0.875
469.316	0.89
478.083	0.897
486.85	0.905
495.617	0.913
504.384	0.92
513.15	0.898
521.917	0.746
530.684	0.756
539.451	0.705
548.218	0.897
556.984	0.946
565.751	0.969
574.518	0.975
583.285	0.976
592.052	0.979
600.818	0.978
609.585	0.976
618.352	0.972
627.119	0.975
635.886	0.976
644.652	0.975
653.419	0.978
662.186	0.975
670.953	0.979
679.72	0.965
688.486	0.953
697.253	0.942
706.02	0.934
714.787	0.93
723.554	0.924
732.321	0.897
741.087	0.7119
749.854	0.128
758.621	0.058
767.388	0.05
776.155	0.7581
784.921	0.93
793.688	0.954
802.455	0.958
811.222	0.953
819.989	0.946
828.755	0.943
837.522	0.941
846.289	0.875
855.056	0.678
863.823	0.46
872.589	0.1162
881.356	0.45
890.123	0.615
898.89	0.856
907.657	0.945
916.423	0.969
925.19	0.973
933.957	0.979
942.724	0.976
951.491	0.972
960.258	0.969
969.024	0.972
977.791	0.975
986.558	0.968
995.325	0.957
1004.09	0.96
1012.86	0.964
1021.63	0.969
1030.39	0.975
1039.16	0.947
1047.93	0.927
1056.69	0.7539
1065.46	0.194
1074.23	0.202
1082.99	0.2531
1091.76	0.778
1100.53	0.453
1109.29	0.646
1118.06	0.5801
1126.83	0.935
1135.59	0.979
1144.36	0.983
1153.13	0.987
1161.89	0.983
1170.66	0.983
1179.43	0.983
1188.19	0.984
1196.96	0.984
1205.73	0.987
1214.49	0.99
1223.26	0.997
1232.03	0.995
1240.8	0.994
1249.56	0.993
1258.33	0.993
1267.1	0.986
1275.86	0.957
1284.63	0.924
1293.4	0.904
1302.16	0.926
1310.93	0.978
1319.7	0.993
1328.46	0.995
1337.23	0.995
1346	0.994
1354.76	0.989
1363.53	0.979
1372.3	0.98
1381.06	0.979
1389.83	0.98
1398.6	0.987
1407.36	0.989
1416.13	0.99
1424.9	0.99
1433.67	0.99
1442.43	0.993
1451.2	0.993
1459.97	0.989
1468.73	0.986
1477.5	0.957
1486.27	0.953
1495.03	0.963
1503.8	0.932
1512.57	0.916
1521.33	0.919
1530.1	0.958
1538.87	0.967
1547.63	0.973
1556.4	0.978
1565.17	0.972
1573.93	0.917
1582.7	0.8159
1591.47	0.5269
1600.23	0.242
1609	0.29
1617.77	0.331
1626.53	0.6521
1635.3	0.839
1644.07	0.924
1652.84	0.946
1661.6	0.971
1670.37	0.976
1679.14	0.979
1687.9	0.982
1696.67	0.982
1705.44	0.982
1714.2	0.98
1722.97	0.978
1731.74	0.971
1740.5	0.947
1749.27	0.92
1758.04	0.923
1766.8	0.947
1775.57	0.972
1784.34	0.98
1793.1	0.982
1801.87	0.982
1810.64	0.98
1819.4	0.975
1828.17	0.973
1836.94	0.973
1845.71	0.976
1854.47	0.98
1863.24	0.983
1872.01	0.984
1880.77	0.986
1889.54	0.986
1898.31	0.987
1907.07	0.987
1915.84	0.986
1924.61	0.987
1933.37	0.984
1942.14	0.983
1950.91	0.982
1959.67	0.983
1968.44	0.982
1977.21	0.98
1985.97	0.979
1994.74	0.98
2003.51	0.978
2012.27	0.984
2021.04	0.987
2029.81	0.989
2038.57	0.989
2047.34	0.989
2056.11	0.989
2064.88	0.99
2073.64	0.9901
2082.41	0.991
2091.18	0.991
2099.94	0.991
2108.71	0.991
2117.48	0.9909
2126.24	0.99
2135.01	0.99
2143.78	0.9898
2152.54	0.989
2161.31	0.989
2170.08	0.99
2178.84	0.991
2187.61	0.991
2196.38	0.991
2205.14	0.9908
2213.91	0.99
2222.68	0.989
2231.44	0.989
2240.21	0.989
2248.98	0.989
2257.75	0.989
2266.51	0.987
2275.28	0.987
2284.05	0.989
2292.81	0.989
2301.58	0.99
2310.35	0.991
2319.11	0.9923
2327.88	0.991
2336.65	0.994
2345.41	0.994
2354.18	0.994
2362.95	0.993
2371.71	0.9906
2380.48	0.9848
2389.25	0.979
2398.01	0.98
2406.78	0.983
2415.55	0.983
2424.31	0.982
2433.08	0.983
2441.85	0.983
2450.61	0.982
2459.38	0.98
2468.15	0.982
2476.92	0.982
2485.68	0.9811
2494.45	0.979
2503.22	0.979
2511.98	0.979
2520.75	0.979
2529.52	0.979
2538.28	0.979
2547.05	0.9784
2555.82	0.978
2564.58	0.976
2573.35	0.976
2582.12	0.976
2590.88	0.975
2599.65	0.973
2608.42	0.972
2617.18	0.971
2625.95	0.971
2634.72	0.971
2643.48	0.971
2652.25	0.971
2661.02	0.969
2669.79	0.968
2678.55	0.967
2687.32	0.9655
2696.09	0.965
2704.85	0.964
2713.62	0.964
2722.39	0.964
2731.15	0.964
2739.92	0.964
2748.69	0.964
2757.45	0.964
2766.22	0.964
2774.99	0.964
2783.75	0.963
2792.52	0.963
2801.29	0.961
2810.05	0.961
2818.82	0.96
2827.59	0.958
2836.35	0.957
2845.12	0.956
2853.89	0.953
2862.65	0.953
2871.42	0.953
2880.19	0.953
2888.96	0.953
2897.72	0.952
2906.49	0.952
2915.26	0.947
2924.02	0.945
2932.79	0.943
2941.56	0.945
2950.32	0.946
2959.09	0.946
2967.86	0.945
2976.62	0.945
2985.39	0.945
2994.16	0.946
3002.92	0.947
3011.69	0.946
3020.46	0.945
3029.22	0.943
3037.99	0.942
3046.76	0.942
3055.52	0.942
3064.29	0.942
3073.06	0.942
3081.83	0.941
3090.59	0.936
3099.36	0.9348
3108.13	0.932
3116.89	0.9318
3125.66	0.931
3134.43	0.9295
3143.19	0.927
3151.96	0.927
3160.73	0.93
3169.49	0.928
3178.26	0.9254
3187.03	0.92
3195.79	0.9144
3204.56	0.909
3213.33	0.9033
3222.09	0.9003
3230.86	0.905
3239.63	0.9033
3248.39	0.9027
3257.16	0.905
3265.93	0.905
3274.69	0.902
3283.46	0.9
3292.23	0.897
3301	0.893
3309.76	0.89
3318.53	0.8851
3327.3	0.8786
3336.06	0.8725
3344.83	0.8661
3353.6	0.859
3362.36	0.8485
3371.13	0.8375
3379.9	0.827
3388.66	0.818
3397.43	0.8095
3406.2	0.806
3414.96	0.8029
3423.73	0.8046
3432.5	0.8107
3441.26	0.8182
3450.03	0.8276
3458.8	0.8332
3467.56	0.8386
3476.33	0.8456
3485.1	0.8559
3493.87	0.8646
3502.63	0.8726
3511.4	0.878
3520.17	0.882
3528.93	0.884
3537.7	0.8897
3546.47	0.891
3555.23	0.893
3564	0.893
3572.77	0.894
3581.53	0.894
3590.3	0.894
3599.07	0.894
3607.83	0.894
3616.6	0.894
3625.37	0.895
3634.13	0.897
3642.9	0.897
3651.67	0.8954
3660.43	0.8942
3669.2	0.894
3677.97	0.894
3686.73	0.894
3695.5	0.895
3704.27	0.895
3713.04	0.8931
3721.8	0.89
3730.57	0.89
3739.34	0.89
3748.1	0.89
3756.87	0.89
3765.64	0.89
3774.4	0.89
3783.17	0.89
3791.94	0.889
