Infrared Spectrum: 1,4-Butanedithiol
Formula: C 4 H 10 S 2
CAS: 1191-08-8
State: gas
Origin: Sadtler Research Labs Under US-EPA Contract
1/CM	ABSORBANCE
450	0.175917
462	0.034623
474	0.0313188
486	0.0320371
498	0.0456852
510	0.0275117
522	0.0261468
534	0.0347667
546	0.0338329
558	0.0127861
570	0.0152284
582	0.0461161
594	0.0340484
606	0.0323244
618	0.0312469
630	0.0285173
642	0.0320371
654	0.0327554
666	0.0299539
678	0.0229144
690	0.0191073
702	0.0359878
714	0.0426682
726	0.0386456
738	0.0352695
750	0.0409442
762	0.0465471
774	0.0433147
786	0.045326
798	0.0412316
810	0.0434584
822	0.0565318
834	0.0538022
846	0.0465471
858	0.0451823
870	0.0331146
882	0.0281581
894	0.0199693
906	0.0239919
918	0.0214778
930	0.0194665
942	0.0239919
954	0.0271525
966	0.0293793
978	0.0321807
990	0.0346949
1002	0.0298821
1014	0.0290201
1026	0.03333
1038	0.0387174
1050	0.0420936
1062	0.0428837
1074	0.043602
1086	0.0424527
1098	0.0415907
1110	0.0418062
1122	0.0371371
1134	0.0477683
1146	0.0515035
1158	0.0520782
1170	0.0553106
1182	0.0546642
1194	0.05646
1206	0.0625657
1218	0.0666601
1230	0.0578248
1242	0.0506416
1254	0.0622783
1266	0.0810265
1278	0.133464
1290	0.174552
1302	0.150488
1314	0.112848
1326	0.0581121
1338	0.0387893
1350	0.0461161
1362	0.0438894
1374	0.0304568
1386	0.024782
1398	0.0339765
1410	0.0558135
1422	0.0836124
1434	0.132243
1446	0.148333
1458	0.112561
1470	0.0609854
1482	0.0323244
1494	0.0231299
1506	0.0219806
1518	0.0201848
1530	0.0176707
1542	0.0181017
1554	0.017527
1566	0.0160904
1578	0.0155875
1590	0.0133608
1602	0.0160904
1614	0.0176707
1626	0.017527
1638	0.0178862
1650	0.016665
1662	0.0164495
1674	0.0160904
1686	0.0177425
1698	0.016234
1710	0.0152284
1722	0.0137199
1734	0.0130016
1746	0.0119241
1758	0.0112776
1770	0.0109185
1782	0.00969732
1794	0.008979
1806	0.00833251
1818	0.00725503
1830	0.0071832
1842	0.00639305
1854	0.00639305
1866	0.00632122
1878	0.00603389
1890	0.00581839
1902	0.00510007
1914	0.00553106
1926	0.00589022
1938	0.0069677
1950	0.00761419
1962	0.00711137
1974	0.00581839
1986	0.00574656
1998	0.00603389
2010	0.00646488
2022	0.00646488
2034	0.0071832
2046	0.00725503
2058	0.00782969
2070	0.00840434
2082	0.00847618
2094	0.00818885
2106	0.00775786
2118	0.00797335
2130	0.00775786
2142	0.00804518
2154	0.00826068
2166	0.00790152
2178	0.00883534
2190	0.00969732
2202	0.00912266
2214	0.00826068
2226	0.00761419
2238	0.0073987
2250	0.00804518
2262	0.00782969
2274	0.00811702
2286	0.00847618
2298	0.0107748
2310	0.0122833
2322	0.0108466
2334	0.00610572
2346	0.00387893
2358	0.0091945
2370	7.1832e-05
2382	0.0015803
2394	0.00258595
2406	0.00272962
2418	0.00265778
2430	0.00215496
2442	0.00215496
2454	0.00193946
2466	0.00100565
2478	0.00100565
2490	0.00035916
2502	0.000861984
2514	0.00186763
2526	0.00237046
2538	0.00330427
2550	0.00488458
2562	0.00797335
2574	0.0123551
2586	0.0229862
2598	0.0267933
2610	0.0167369
2622	0.0121396
2634	0.0105593
2646	0.0114931
2658	0.0118523
2670	0.0139354
2682	0.0163777
2694	0.0150847
2706	0.0131453
2718	0.0121396
2730	0.0126424
2742	0.0119241
2754	0.0130016
2766	0.0134326
2778	0.0160185
2790	0.0187482
2802	0.0260032
2814	0.0317497
2826	0.0386456
2838	0.0736996
2850	0.146825
2862	0.196748
2874	0.175988
2886	0.137271
2898	0.165932
2910	0.315486
2922	0.505625
2934	0.685349
2946	0.636647
2958	0.5697
2970	0.40032
2982	0.190427
2994	0.0757109
3006	0.034192
3018	0.0208313
3030	0.0137917
3042	0.00948182
3054	0.0056029
3066	0.0033761
3078	0.0035916
3090	0.00330427
3102	0.00409442
3114	0.00272962
3126	0.00351977
3138	0.00373526
3150	0.00409442
3162	0.00438175
3174	0.0033761
3186	0.00308878
3198	0.00258595
3210	0.0015803
3222	0.000574656
3234	0.00129298
3246	0.00186763
3258	0.00344794
3270	0.00330427
3282	0.00308878
3294	0.00430992
3306	0.00395076
3318	0.00301694
3330	0.00215496
3342	0.00445358
3354	0.00301694
3366	0.00574656
3378	0.00581839
3390	0.00488458
3402	0.0038071
3414	0.00804518
3426	0.00466908
3438	0.00323244
3450	0.00416626
3462	0.00524374
3474	0.00438175
3486	0.00330427
3498	0.0033761
3510	0.00330427
3522	0.00323244
3534	0.00287328
3546	0.00524374
3558	0.00316061
3570	0.00430992
3582	0.00280145
3594	0.00344794
3606	0.00323244
3618	0.00553106
3630	0.00474091
3642	0.00258595
3654	0.0020113
3666	0.00797335
3678	0.00502824
3690	0.00826068
3702	0.00553106
3714	0.00567473
3726	0.00869167
3738	0.00430992
3750	0.00423809
3762	0.00675221
3774	0.00790152
3786	0.00775786
3798	0.00890717
3810	0.00933816
3822	0.0121396
3834	0.0104875
3846	0.00725503
3858	0.008979
3870	0.0117086
3882	0.0133608
3894	0.011134
3906	0.00660854
3918	0.0117804
3930	0.00818885
3942	0.0123551
3954	0.0130016
3966	0.0131453
