Infrared Spectrum: 2-Bromoacetamide
Formula: C 2 H 4 Br N O
CAS: 683-57-8
State: gas
Origin: EPA-IR VAPOR PHASE LIBRARY
1/CM	ABSORBANCE
549.8	0.001748
559.445	0.001928
569.09	0.002048
578.734	0.001738
588.379	0.002218
598.024	0.001928
607.669	0.002108
617.313	0.002598
626.958	0.002888
636.603	0.002648
646.248	0.002518
655.893	0.002408
665.537	0.002058
675.182	0.001788
684.827	0.002368
694.472	0.003258
704.116	0.003848
713.761	0.003028
723.406	0.002768
733.051	0.002108
742.695	0.002148
752.34	0.002118
761.985	0.001828
771.63	0.001938
781.275	0.001978
790.919	0.001678
800.564	0.002068
810.209	0.002158
819.854	0.002248
829.498	0.002438
839.143	0.002508
848.788	0.002138
858.433	0.002228
868.078	0.002318
877.722	0.002008
887.367	0.001898
897.012	0.002118
906.657	0.001688
916.301	0.001668
925.946	0.001458
935.591	0.0013374
945.236	0.001498
954.88	0.001418
964.525	0.0013699
974.17	0.0011733
983.815	0.0011106
993.46	0.0011075
1003.1	0.0011687
1012.75	0.0010769
1022.39	0.0008753
1032.04	0.0012292
1041.68	0.0012662
1051.33	0.0012646
1060.97	0.0011495
1070.62	0.0011713
1080.26	0.001608
1089.91	0.001508
1099.55	0.0013113
1109.2	0.0007819
1118.84	0.0006962
1128.49	0.0008284
1138.13	0.0006976
1147.78	0.0007749
1157.42	0.0007689
1167.07	0.0006272
1176.71	0.000953
1186.36	0.0013706
1196	0.001658
1205.64	0.003048
1215.29	0.004698
1224.93	0.004988
1234.58	0.002568
1244.22	0.0005795
1253.87	0.00051259
1263.51	0.0003697
1273.16	0.000261
1282.8	0.00043708
1292.45	0.0010434
1302.09	0.001848
1311.74	0.003088
1321.38	0.005518
1331.03	0.009058
1340.67	0.011318
1350.32	0.011148
1359.96	0.008758
1369.61	0.005288
1379.25	0.003338
1388.9	0.002278
1398.54	0.001858
1408.18	0.001918
1417.83	0.002048
1427.47	0.001828
1437.12	0.001498
1446.76	0.0009194
1456.41	0.000741
1466.05	0.0006346
1475.7	0.0006223
1485.34	0.0005789
1494.99	0.0006513
1504.63	0.0007136
1514.28	0.0007195
1523.92	0.0008086
1533.57	0.0010412
1543.21	0.001678
1552.86	0.002898
1562.5	0.005238
1572.15	0.008668
1581.79	0.010148
1591.44	0.010158
1601.08	0.007588
1610.73	0.005108
1620.37	0.003298
1630.01	0.002348
1639.66	0.001888
1649.3	0.001848
1658.95	0.002118
1668.59	0.002888
1678.24	0.003908
1687.88	0.005298
1697.53	0.007288
1707.17	0.011118
1716.82	0.020138
1726.46	0.032218
1736.11	0.035188
1745.75	0.030098
1755.4	0.015428
1765.04	0.008458
1774.69	0.005338
1784.33	0.003208
1793.98	0.001908
1803.62	0.0009613
1813.27	0.0006339
1822.91	0.00051155
1832.55	0.000423564
1842.2	0.00049633
1851.84	0.00043212
1861.49	0.0004785
1871.13	0.000548
1880.78	0.0005253
1890.42	0.00048605
1900.07	0.00051733
1909.71	0.0005722
1919.36	0.0005545
1929	0.0006346
1938.65	0.0005268
1948.29	0.00047042
1957.94	0.000426644
1967.58	0.0003785
1977.23	0.0003885
1986.87	0.0003511
1996.52	0.0003215
2006.16	0.0003408
2015.81	0.0003496
2025.45	0.0003956
2035.1	0.0003266
2044.74	0.000271
2054.38	0.00028
2064.03	0.0003368
2073.67	0.000338
2083.32	0.0003191
2092.96	0.0003575
2102.61	0.000302
2112.25	0.0003859
2121.9	0.0003727
2131.54	0.0003889
2141.19	0.000311
2150.83	0.0003518
2160.48	0.00035
2170.12	0.00040811
2179.77	0.0003791
2189.41	0.0003656
2199.06	0.0004297
2208.7	0.0004007
2218.35	0.0003358
2227.99	0.0003744
2237.64	0.0003627
2247.28	0.0003705
2256.92	0.0003462
2266.57	0.0003967
2276.21	0.00041397
2285.86	0.0003805
2295.5	0.000427042
2305.15	0.0003509
2314.79	0.000283
2324.44	0.000226
2334.08	0.0003962
2343.73	0.0003529
2353.37	0.0003952
2363.02	0.000309
2372.66	0.0003547
2382.31	0.000371
2391.95	0.000306
2401.6	0.0003336
2411.24	0.00041092
2420.89	0.0004078
2430.53	0.0003848
2440.18	0.0003571
2449.82	0.00046024
2459.47	0.0003666
2469.11	0.000256
2478.75	0.000305
2488.4	0.000292
2498.04	0.00029
2507.69	0.000263
2517.33	0.000259
2526.98	0.000417923
2536.62	0.000303
2546.27	0.000285
2555.91	0.000289
2565.56	0.0003402
2575.2	0.000256
2584.85	0.0003324
2594.49	0.0003868
2604.14	0.000297
2613.78	0.00041597
2623.43	0.000281
2633.07	0.000304
2642.72	0.000263
2652.36	0.000314
2662.01	0.000252
2671.65	0.0003244
2681.29	0.000426051
2690.94	0.0003903
2700.58	0.0003341
2710.23	0.000293
2719.87	0.0003273
2729.52	0.000254
2739.16	0.0003542
2748.81	0.000244
2758.45	0.000297
2768.1	0.0003213
2777.74	0.0003405
2787.39	0.00051443
2797.03	0.0003737
2806.68	0.0003912
2816.32	0.00043123
2825.97	0.0003585
2835.61	0.00040832
2845.26	0.00051215
2854.9	0.000297
2864.55	0.0003751
2874.19	0.0003467
2883.84	0.0003892
2893.48	0.00047282
2903.12	0.0003401
2912.77	0.00050018
2922.41	0.000579
2932.06	0.000457
2941.7	0.00050576
2951.35	0.000423646
2960.99	0.0007446
2970.64	0.0007979
2980.28	0.000763
2989.93	0.0008195
2999.57	0.00049893
3009.22	0.0005493
3018.86	0.0005228
3028.51	0.0005414
3038.15	0.00031
3047.8	0.0005378
3057.44	0.00046591
3067.09	0.00041324
3076.73	0.0003462
3086.38	0.00047307
3096.02	0.00045248
3105.67	0.0003984
3115.31	0.000384
3124.95	0.0003912
3134.6	0.0003379
3144.24	0.0003578
3153.89	0.00046502
3163.53	0.000422028
3173.18	0.0003476
3182.82	0.00047764
3192.47	0.0003601
3202.11	0.000319
3211.76	0.000202
3221.4	0.0003923
3231.05	0.0003633
3240.69	0.000285
3250.34	0.00043522
3259.98	0.0003916
3269.63	0.00044364
3279.27	0.000237
3288.92	0.000316
3298.56	0.0003211
3308.21	0.000422403
3317.85	0.00050155
3327.49	0.00046893
3337.14	0.0003556
3346.78	0.00050386
3356.43	0.0005902
3366.07	0.00047465
3375.72	0.0006559
3385.36	0.0010975
3395.01	0.0011691
3404.65	0.002028
3414.3	0.003108
3423.94	0.003948
3433.59	0.003398
3443.23	0.003198
3452.88	0.002128
3462.52	0.0014137
3472.17	0.0012828
3481.81	0.0011611
3491.46	0.0013794
3501.1	0.001938
3510.75	0.002508
3520.39	0.003348
3530.04	0.004408
3539.68	0.006578
3549.32	0.006318
3558.97	0.004958
3568.61	0.001558
3578.26	0.0007689
3587.9	0.0006691
3597.55	0.0006094
3607.19	0.00047251
3616.84	0.00051217
3626.48	0.0006393
3636.13	0.0003581
3645.77	0.000402
3655.42	0.00049295
3665.06	0.0003219
3674.71	0.0003394
3684.35	0.00045871
3694	0.000278
3703.64	0.0003892
3713.29	0.0003262
3722.93	0.00041279
3732.58	0.00043798
3742.22	0.0003814
3751.86	0.0005203
3761.51	0.0003281
3771.15	0.000225
3780.8	0.0003423
3790.44	0.0005192
3800.09	0.00048171
3809.73	0.000284
3819.38	0.00046836
3829.02	0.00050085
3838.67	0.000243
3848.31	0.0003892
3857.96	0.00048085
3867.6	0.0003805
3877.25	0.0003665
3886.89	0.0005246
3896.54	0.000292
3906.18	0.0003787
3915.83	0.0005582
3925.47	0.00045284
3935.12	0.000420575
3944.76	0.000308
3954.41	0.000247
3964.05	0.0005721
3973.69	0.0003983
3983.34	0.000295
3992.98	0.00041004
