Infrared Spectrum: 1-Butanethiol
Formula: C 4 H 10 S
CAS: 109-79-5
State: gas
Origin: Sadtler Research Labs Under US-EPA Contract
1/CM	ABSORBANCE
450	0
462	0.0183645
474	0.0234712
486	0.0160076
498	0.0155165
510	0.0121775
522	0.019543
534	0.0201322
546	0.0212125
558	0.0164986
570	0.0179717
582	0.0201322
594	0.00746366
606	0.0135524
618	0.0191502
630	0.0136506
642	0.0160076
654	0.0192484
666	0.0213107
678	0.0152219
690	0.019052
702	0.0278905
714	0.0350595
726	0.0423268
738	0.0485138
750	0.0435053
762	0.036238
774	0.0377111
786	0.0353542
798	0.0246497
810	0.0177753
822	0.0177753
834	0.0185609
846	0.0189538
858	0.0196412
870	0.0230784
882	0.0249443
894	0.0232748
906	0.0218999
918	0.0214089
930	0.0247479
942	0.0302474
954	0.0347649
966	0.0359434
978	0.0303457
990	0.022391
1002	0.0230784
1014	0.0199358
1026	0.0181681
1038	0.0194448
1050	0.0219981
1062	0.0230784
1074	0.0239623
1086	0.0285779
1098	0.0327026
1110	0.0336847
1122	0.0286762
1134	0.0202304
1146	0.0171861
1158	0.0173825
1170	0.0205251
1182	0.0255336
1194	0.0320152
1206	0.0373183
1218	0.0471389
1230	0.0677621
1242	0.0687442
1254	0.0489066
1266	0.0682532
1278	0.105179
1290	0.121186
1302	0.0972239
1314	0.0652088
1326	0.0420322
1338	0.040068
1350	0.0445855
1362	0.042425
1374	0.0499869
1386	0.0620662
1398	0.0546025
1410	0.0368272
1422	0.0456658
1434	0.0830823
1446	0.122954
1458	0.142988
1470	0.129436
1482	0.0880908
1494	0.0490048
1506	0.0291672
1518	0.0209179
1530	0.0167932
1542	0.0159094
1554	0.0151237
1566	0.0141417
1578	0.0137488
1590	0.0131596
1602	0.0130614
1614	0.0126686
1626	0.0121775
1638	0.0119811
1650	0.0117847
1662	0.0115883
1674	0.0115883
1686	0.0120793
1698	0.0122758
1710	0.0111955
1722	0.0115883
1734	0.0109009
1746	0.0106062
1758	0.010508
1770	0.010508
1782	0.0106062
1794	0.010017
1806	0.00972239
1818	0.0102134
1830	0.0098206
1842	0.00893675
1854	0.00942778
1866	0.00893675
1878	0.00795469
1890	0.00844572
1902	0.00854392
1914	0.00874033
1926	0.00834751
1938	0.00932957
1950	0.00942778
1962	0.00932957
1974	0.00972239
1986	0.00903495
1998	0.00893675
2010	0.00972239
2022	0.0102134
2034	0.0104098
2046	0.00952598
2058	0.0107045
2070	0.0109009
2082	0.00805289
2094	0.00864213
2106	0.00952598
2118	0.00932957
2130	0.0101152
2142	0.0106062
2154	0.0109991
2166	0.0107045
2178	0.010508
2190	0.0104098
2202	0.0104098
2214	0.0104098
2226	0.0102134
2238	0.0106062
2250	0.00991881
2262	0.010017
2274	0.0103116
2286	0.0103116
2298	0.0121775
2310	0.0125704
2322	0.0110973
2334	0.00991881
2346	0.0125704
2358	0.00952598
2370	0.0124722
2382	0.0136506
2394	0.0121775
2406	0.0110973
2418	0.010508
2430	0.0098206
2442	0.0104098
2454	0.00972239
2466	0.00942778
2478	0.00972239
2490	0.00874033
2502	0.00972239
2514	0.0102134
2526	0.0108027
2538	0.0108027
2550	0.0119811
2562	0.0132578
2574	0.0182663
2586	0.0261228
2598	0.0287744
2610	0.0234712
2622	0.0165968
2634	0.0154183
2646	0.0164004
2658	0.0165968
2670	0.0177753
2682	0.0197394
2694	0.0187573
2706	0.0182663
2718	0.0186591
2730	0.0214089
2742	0.0246497
2754	0.0259264
2766	0.0237659
2778	0.0238641
2790	0.0280869
2802	0.0332918
2814	0.0404609
2826	0.0541115
2838	0.0899567
2850	0.162138
2862	0.245122
2874	0.328597
2886	0.379075
2898	0.362773
2910	0.37112
2922	0.514403
2934	0.727019
2946	0.836813
2958	0.90104
2970	0.98206
2982	0.705512
2994	0.279396
3006	0.112348
3018	0.0600039
3030	0.0447819
3042	0.0386932
3054	0.036238
3066	0.0317205
3078	0.0275959
3090	0.0272031
3102	0.0235694
3114	0.0235694
3126	0.0211143
3138	0.0207215
3150	0.0198376
3162	0.020034
3174	0.0191502
3186	0.0193466
3198	0.019543
3210	0.0185609
3222	0.0163022
3234	0.0141417
3246	0.0130614
3258	0.012374
3270	0.0124722
3282	0.0122758
3294	0.0122758
3306	0.0108027
3318	0.0112937
3330	0.0117847
3342	0.010508
3354	0.0125704
3366	0.0126686
3378	0.0130614
3390	0.0122758
3402	0.0127668
3414	0.0125704
3426	0.0124722
3438	0.0117847
3450	0.010508
3462	0.0106062
3474	0.0102134
3486	0.0113919
3498	0.0110973
3510	0.00942778
3522	0.0109991
3534	0.0118829
3546	0.0112937
3558	0.0125704
3570	0.0117847
3582	0.0136506
3594	0.0114901
3606	0.0129632
3618	0.012865
3630	0.0114901
3642	0.0112937
3654	0.0119811
3666	0.0143381
3678	0.0173825
3690	0.0132578
3702	0.013847
3714	0.0136506
3726	0.0139453
3738	0.0139453
3750	0.0135524
3762	0.013847
3774	0.0154183
3786	0.0164004
3798	0.0132578
3810	0.0144363
3822	0.0136506
3834	0.0160076
3846	0.0161058
3858	0.012865
3870	0.013847
3882	0.0170878
3894	0.0152219
3906	0.0167932
3918	0.0145345
3930	0.0145345
3942	0.0119811
3954	0.0139453
3966	0.0145345
