Infrared Spectrum: PROPIONAMIDE
Formula: C3 H7 N O
CAS: 79-05-0
State: SOLID (SPLIT MULL)
Class: COBLENTZ II
Instrument: DOW KBr FOREPRISM-GRATING
Instrument parameters: BLAZED AT 3.5, 12.0, 20.0 MICRON AND CHANGED AT 5.0, 7.5, 14.9 MICRON
Sampling: TRANSMISSION
Resolution: 2
Origin: DOW CHEMICAL COMPANY
1/CM	TRANSMITTANCE
3806	0.8435
3797	0.8443
3788	0.8451
3779	0.8459
3770	0.8468
3761	0.8488
3752	0.8509
3743	0.8528
3734	0.8532
3725	0.8524
3716	0.8525
3707	0.8531
3698	0.8557
3689	0.8592
3680	0.8621
3671	0.8647
3662	0.8671
3653	0.8691
3644	0.8705
3635	0.8718
3626	0.8732
3617	0.8746
3608	0.8761
3599	0.8774
3590	0.8784
3581	0.879
3572	0.8796
3563	0.8801
3554	0.8801
3545	0.8801
3536	0.8801
3527	0.8798
3518	0.8794
3509	0.8738
3500	0.8652
3491	0.8511
3482	0.83
3473	0.8064
3464	0.7775
3455	0.7418
3446	0.6953
3437	0.6236
3428	0.5167
3419	0.4434
3410	0.3702
3401	0.2658
3392	0.155
3383	0.0975
3374	0.0892
3365	0.0915
3356	0.1007
3347	0.1213
3338	0.1479
3329	0.1744
3320	0.1965
3311	0.2148
3302	0.2313
3293	0.2458
3284	0.2572
3275	0.2665
3266	0.2734
3257	0.2725
3248	0.2592
3239	0.2353
3230	0.2087
3221	0.1825
3212	0.1625
3203	0.1486
3194	0.1422
3185	0.1415
3176	0.1645
3167	0.2004
3158	0.2458
3149	0.2958
3140	0.3377
3131	0.3741
3122	0.4049
3113	0.4385
3104	0.4612
3095	0.4836
3086	0.5057
3077	0.528
3068	0.5492
3059	0.5689
3050	0.5886
3041	0.606
3032	0.6193
3023	0.6312
3014	0.6399
3005	0.6418
2996	0.629
2987	0.4344
2978	0.3169
2969	0.4386
2960	0.5508
2951	0.5345
2942	0.4351
2933	0.5096
2924	0.5195
2915	0.5608
2906	0.6122
2897	0.6171
2888	0.6137
2879	0.6021
2870	0.6426
2861	0.6628
2852	0.6714
2843	0.674
2834	0.6698
2825	0.6508
2816	0.628
2807	0.6273
2798	0.6456
2789	0.6603
2780	0.6826
2771	0.696
2762	0.7078
2753	0.7099
2744	0.7105
2735	0.7182
2726	0.7288
2717	0.738
2708	0.7456
2699	0.7532
2690	0.7597
2681	0.7639
2672	0.7681
2663	0.7721
2654	0.7755
2645	0.7787
2636	0.7819
2627	0.785
2618	0.7871
2609	0.7891
2600	0.7911
2591	0.7932
2582	0.7943
2573	0.7954
2564	0.7965
2555	0.7974
2546	0.7978
2537	0.7984
2528	0.7989
2519	0.7983
2510	0.7971
2501	0.7958
2492	0.7946
2483	0.7936
2474	0.7936
2465	0.7932
2456	0.7924
2447	0.7889
2438	0.7868
2429	0.7889
2420	0.7903
2411	0.7922
2402	0.7948
2393	0.7965
2384	0.8
2375	0.8088
2366	0.8078
2357	0.8034
2348	0.8008
2339	0.7972
2330	0.7937
2321	0.7903
2312	0.7871
2303	0.7844
2294	0.7849
2285	0.786
2276	0.7901
2267	0.7951
2258	0.801
2249	0.8062
2240	0.8114
2231	0.8162
2222	0.821
2213	0.8247
2204	0.8282
2195	0.8298
2186	0.8313
2177	0.832
2168	0.8325
2159	0.8331
2150	0.8368
2141	0.8409
2132	0.8447
2123	0.8482
2114	0.8517
2105	0.8548
2096	0.8574
2087	0.8601
2078	0.863
2069	0.865
2060	0.8668
2051	0.8683
2042	0.8695
2033	0.8701
2024	0.8709
2015	0.8713
2006	0.8646
1997	0.8399
1988	0.8718
1979	0.8743
1970	0.8768
1961	0.8785
1952	0.8771
1943	0.8774
1934	0.8778
1925	0.8799
1916	0.8801
1907	0.8797
1898	0.8767
1889	0.8735
1880	0.8698
1871	0.8692
1862	0.8691
1853	0.8677
1844	0.8667
1835	0.86
1826	0.8544
1817	0.8512
1808	0.8452
1799	0.8368
1790	0.8259
1781	0.8087
1772	0.7878
1763	0.7683
1754	0.7487
1745	0.7186
1736	0.6772
1727	0.607
1718	0.5177
1709	0.4502
1700	0.4025
1691	0.3368
1682	0.2176
1673	0.1278
1664	0.0737
1655	0.0704
1646	0.0768
1637	0.0763
1628	0.0751
1619	0.1088
1610	0.1746
1601	0.2872
1592	0.3598
1583	0.4058
1574	0.4595
1565	0.5183
1556	0.5474
1547	0.5688
1538	0.5876
1529	0.6
1520	0.6092
1511	0.617
1502	0.6156
1493	0.6112
1484	0.5918
1475	0.5396
1466	0.2862
1457	0.4797
1448	0.4885
1439	0.4092
1430	0.2746
1421	0.1362
1412	0.2102
1403	0.298
1394	0.3858
1385	0.4224
1376	0.3891
1367	0.4637
1358	0.4649
1349	0.4373
1340	0.4276
1331	0.4397
1322	0.4412
1313	0.385
1304	0.171
1295	0.0872
1286	0.2346
1277	0.3804
1268	0.4478
1259	0.4923
1250	0.5303
1241	0.5709
1232	0.604
1223	0.6304
1214	0.6558
1205	0.678
1196	0.7006
1187	0.7122
1178	0.7121
1169	0.7043
1160	0.6711
1151	0.4684
1142	0.1746
1133	0.362
1124	0.5645
1115	0.6611
1106	0.7192
1097	0.7562
1088	0.7748
1079	0.7797
1070	0.4637
1061	0.6812
1052	0.7946
1043	0.8394
1034	0.8527
1025	0.8599
1016	0.8403
1007	0.7503
998	0.8088
989	0.8666
980	0.8746
971	0.8725
962	0.8753
953	0.8821
944	0.8871
935	0.8883
926	0.8892
917	0.8887
908	0.8861
899	0.88
890	0.8775
881	0.8784
872	0.8737
863	0.8642
854	0.8462
845	0.8085
836	0.7321
827	0.554
818	0.5057
809	0.6869
800	0.8061
791	0.8092
782	0.8006
773	0.7892
764	0.7724
755	0.7519
746	0.721
737	0.6684
728	0.5803
719	0.5045
710	0.4889
701	0.4647
692	0.4404
683	0.4162
674	0.3924
665	0.3714
656	0.3422
647	0.3366
638	0.3587
629	0.4236
620	0.5112
611	0.6012
602	0.6701
593	0.7087
584	0.7254
575	0.7678
566	0.8193
557	0.8753
548	0.9245
539	0.9578
530	0.983
521	0.9945
512	0.993
503	0.9738
494	0.9334
485	0.5812
476	0.6533
467	0.8545
458	0.9128
