Infrared Spectrum: CYANOGEN
Formula: C2 N2
CAS: 460-19-5
State: GAS
Class: COBLENTZ
Instrument: Not specified, most likely a prism, grating, or hybrid spectrometer.
Sampling: TRANSMISSION
Path length: 5 CM
Resolution: 4
Origin: WYANDOTTE CHEMICALS CORP., WYANDOTTE, MICHIGAN, USA
MICROMETERS	TRANSMITTANCE
2.027	0.913
2.06681	0.915
2.10662	0.917
2.14643	0.92
2.18623	0.922
2.22604	0.922
2.26585	0.922
2.30566	0.922
2.34547	0.923
2.38528	0.923
2.42509	0.925
2.46489	0.925
2.5047	0.928
2.54451	0.935
2.58432	0.937
2.62413	0.933
2.66394	0.928
2.70375	0.932
2.74355	0.933
2.78336	0.937
2.82317	0.935
2.86298	0.927
2.90279	0.927
2.9426	0.927
2.98241	0.922
3.02221	0.922
3.06202	0.922
3.10183	0.922
3.14164	0.923
3.18145	0.923
3.22126	0.93
3.26106	0.928
3.30087	0.923
3.34068	0.918
3.38049	0.92
3.4203	0.923
3.46011	0.928
3.49992	0.933
3.53972	0.937
3.57953	0.938
3.61934	0.94
3.65915	0.94
3.69896	0.937
3.73877	0.879
3.77858	0.693
3.81838	0.93
3.85819	0.935
3.898	0.839
3.93781	0.635
3.97762	0.895
4.01743	0.937
4.05724	0.938
4.09704	0.942
4.13685	0.942
4.17666	0.942
4.21647	0.942
4.25628	0.897
4.29609	0.788
4.3359	0.705
4.3757	0.768
4.41551	0.892
4.45532	0.933
4.49513	0.94
4.53494	0.948
4.57475	0.95
4.61456	0.951
4.65436	0.87
4.69417	0.317
4.73398	0.21
4.77379	0.721
4.8136	0.895
4.85341	0.913
4.89322	0.943
4.93302	0.948
4.97283	0.961
5.01264	0.966
5.05245	0.963
5.09226	0.961
5.13207	0.961
5.17188	0.961
5.21168	0.961
5.25149	0.961
5.2913	0.963
5.33111	0.966
5.37092	0.96
5.41073	0.96
5.45054	0.968
5.49034	0.963
5.53015	0.961
5.56996	0.961
5.60977	0.961
5.64958	0.961
5.68939	0.961
5.72919	0.961
5.769	0.96
5.80881	0.956
5.84862	0.96
5.88843	0.96
5.92824	0.947
5.96805	0.95
6.00785	0.937
6.04766	0.938
6.08747	0.938
6.12728	0.94
6.16709	0.94
6.2069	0.94
6.24671	0.942
6.28651	0.947
6.32632	0.947
6.36613	0.948
6.40594	0.95
6.44575	0.938
6.48556	0.943
6.52537	0.94
6.56517	0.953
6.60498	0.958
6.64479	0.96
6.6846	0.96
6.72441	0.951
6.76422	0.945
6.80403	0.942
6.84383	0.938
6.88364	0.938
6.92345	0.933
6.96326	0.937
7.00307	0.937
7.04288	0.925
7.08269	0.902
7.12249	0.9
7.1623	0.902
7.20211	0.899
7.24192	0.902
7.28173	0.918
7.32154	0.933
7.36135	0.945
7.40115	0.947
7.44096	0.948
7.48077	0.95
7.52058	0.948
7.56039	0.948
7.6002	0.948
7.64001	0.947
7.67981	0.945
7.71962	0.947
7.75943	0.947
7.79924	0.943
7.83905	0.942
7.87886	0.942
7.91866	0.938
7.95847	0.937
7.99828	0.935
8.03809	0.933
8.0779	0.93
8.11771	0.927
8.15752	0.928
8.19732	0.927
8.23713	0.923
8.27694	0.93
8.31675	0.932
8.35656	0.933
8.39637	0.933
8.43618	0.933
8.47598	0.942
8.51579	0.938
8.5556	0.94
8.59541	0.942
8.63522	0.942
8.67503	0.945
8.71484	0.947
8.75464	0.948
8.79445	0.95
8.83426	0.943
8.87407	0.935
8.91388	0.932
8.95369	0.927
8.9935	0.922
9.0333	0.915
9.07311	0.912
9.11292	0.908
9.15273	0.903
9.19254	0.899
9.23235	0.899
9.27216	0.899
9.31196	0.899
9.35177	0.9
9.39158	0.9
9.43139	0.9
9.4712	0.9
9.51101	0.9
9.55082	0.9
9.59062	0.9
9.63043	0.902
9.67024	0.902
9.71005	0.903
9.74986	0.905
9.78967	0.907
9.82948	0.903
9.86928	0.908
9.90909	0.912
9.9489	0.91
9.98871	0.915
10.0285	0.918
10.0683	0.918
10.1081	0.918
10.1479	0.92
10.1878	0.922
10.2276	0.923
10.2674	0.925
10.3072	0.918
10.347	0.925
10.3868	0.922
10.4266	0.927
10.4664	0.922
10.5062	0.925
10.546	0.927
10.5858	0.93
10.6256	0.928
10.6655	0.927
10.7053	0.928
10.7451	0.928
10.7849	0.928
10.8247	0.93
10.8645	0.93
10.9043	0.932
10.9441	0.932
10.9839	0.932
11.0237	0.933
11.0635	0.935
11.1033	0.933
11.1432	0.937
11.183	0.938
11.2228	0.938
11.2626	0.938
11.3024	0.938
11.3422	0.938
11.382	0.937
11.4218	0.938
11.4616	0.94
11.5014	0.94
11.5412	0.94
11.5811	0.94
11.6209	0.942
11.6607	0.943
11.7005	0.943
11.7403	0.947
11.7801	0.948
11.8199	0.947
11.8597	0.948
11.8995	0.948
11.9393	0.948
11.9791	0.943
12.0189	0.943
12.0588	0.947
12.0986	0.95
12.1384	0.948
12.1782	0.948
12.218	0.948
12.2578	0.95
12.2976	0.948
12.3374	0.948
12.3772	0.947
12.417	0.947
12.4568	0.95
12.4966	0.948
12.5365	0.943
12.5763	0.943
12.6161	0.945
12.6559	0.942
12.6957	0.943
12.7355	0.948
12.7753	0.947
12.8151	0.945
12.8549	0.935
12.8947	0.93
12.9345	0.917
12.9744	0.899
13.0142	0.874
13.054	0.844
13.0938	0.799
13.1336	0.745
13.1734	0.678
13.2132	0.605
13.253	0.529
13.2928	0.448
13.3326	0.365
13.3724	0.288
13.4122	0.226
13.4521	0.197
13.4919	0.183
13.5317	0.19
13.5715	0.24
13.6113	0.322
13.6511	0.384
13.6909	0.331
13.7307	0.245
13.7705	0.188
13.8103	0.167
13.8501	0.172
13.8899	0.213
13.9298	0.279
13.9696	0.392
14.0094	0.518
14.0492	0.649
14.089	0.731
14.1288	0.807
14.1686	0.849
14.2084	0.872
14.2482	0.88
14.288	0.884
14.3278	0.882
14.3676	0.88
14.4075	0.877
14.4473	0.87
14.4871	0.864
14.5269	0.857
14.5667	0.852
14.6065	0.85
14.6463	0.846
14.6861	0.836
14.7259	0.831
14.7657	0.832
14.8055	0.831
14.8454	0.822
14.8852	0.827
14.925	0.827
14.9648	0.829
15.0046	0.821
15.0444	0.798
15.0842	0.786
15.124	0.807
15.1638	0.822
15.2036	0.832
15.2434	0.829
15.2832	0.824
15.3231	0.819
15.3629	0.814
15.4027	0.811
15.4425	0.811
15.4823	0.807
15.5221	0.807
15.5619	0.806
15.6017	0.807
15.6415	0.812
15.6813	0.811
15.7211	0.807
15.7609	0.801
15.8008	0.804
15.8406	0.802
15.8804	0.798
15.9202	0.794
15.96	0.791
15.9998	0.786
