Infrared Spectrum: ETHANEDINITRILE
Formula: C2 N2
CAS: 460-19-5
State: GAS (280 mmHg, N2 ADDED, TOTAL PRESSURE 600 mmHg)
Class: COBLENTZ
Instrument: DOW KBr FOREPRISM-GRATING
Instrument parameters: GRATING: BLAZED AT 3.5, 12.0, 20.0 MICRON, CHANGED AT 5.0, 7.5, 14.9 MICRON
Sampling: TRANSMISSION
Path length: 10 CM CELL
Resolution: 2
Origin: DOW CHEMICAL COMPANY
1/CM	TRANSMITTANCE
457.692	1.024
466.666	1.022
475.641	1.024
484.615	1.024
493.59	1.024
502.564	1.03
511.538	1.03
520.513	1.028
529.487	1.024
538.462	1.02
547.436	1.018
556.41	1.014
565.385	1.004
574.359	1
583.334	0.991
592.308	0.983
601.282	0.967
610.257	0.955
619.231	0.917
628.205	0.943
637.18	0.977
646.154	0.987
655.129	0.993
664.103	0.987
673.077	0.983
682.052	0.971
691.026	0.983
700.001	0.979
708.975	0.5783
717.949	0.2091
726.924	0.362
735.898	0.254
744.873	0.3929
753.847	0.703
762.821	0.9028
771.796	0.991
780.77	1.012
789.745	1.02
798.719	1.018
807.693	1.02
816.668	1.02
825.642	1.018
834.617	1.014
843.591	1.012
852.565	1.008
861.54	1.004
870.514	0.997
879.488	1.004
888.463	1.002
897.437	0.997
906.412	1.004
915.386	1.006
924.36	1.014
933.335	1.016
942.309	1.016
951.284	1.018
960.258	1.02
969.232	1.02
978.207	1.02
987.181	1.022
996.156	1.022
1005.13	1.022
1014.1	1.024
1023.08	1.022
1032.05	1.022
1041.03	1.024
1050	1.022
1058.98	1.022
1067.95	1.022
1076.93	1.022
1085.9	1.022
1094.87	1.024
1103.85	1.026
1112.82	1.03
1121.8	1.03
1130.77	1.03
1139.75	1.028
1148.72	1.028
1157.69	1.028
1166.67	1.026
1175.64	1.026
1184.62	1.026
1193.59	1.026
1202.57	1.026
1211.54	1.028
1220.52	1.026
1229.49	1.026
1238.46	1.026
1247.44	1.02
1256.41	1.018
1265.39	1.016
1274.36	1.016
1283.34	1.014
1292.31	1.012
1301.28	1.012
1310.26	1.004
1319.23	1.01
1328.21	1.014
1337.18	1.012
1346.16	1.014
1355.13	1.014
1364.11	1.014
1373.08	1.016
1382.05	1.018
1391.03	1.024
1400	1.012
1408.98	1.012
1417.95	1.008
1426.93	1.008
1435.9	1
1444.88	1.002
1453.85	1
1462.82	0.997
1471.8	0.993
1480.77	1.004
1489.75	0.997
1498.72	0.995
1507.7	0.989
1516.67	0.983
1525.64	0.983
1534.62	0.991
1543.59	0.987
1552.57	0.993
1561.54	1
1570.52	0.997
1579.49	1.004
1588.47	1.004
1597.44	1.004
1606.41	1.002
1615.39	1.002
1624.36	0.995
1633.34	0.993
1642.31	0.983
1651.29	0.991
1660.26	0.993
1669.24	0.991
1678.21	0.977
1687.18	0.985
1696.16	0.979
1705.13	0.981
1714.11	0.979
1723.08	0.977
1732.06	0.977
1741.03	0.975
1750	0.981
1758.98	0.983
1767.95	0.983
1776.93	0.983
1785.9	0.987
1794.88	0.987
1803.85	0.987
1812.83	0.983
1821.8	0.985
1830.77	0.981
1839.75	0.985
1848.72	0.985
1857.7	0.983
1866.67	0.985
1875.65	0.985
1884.62	0.983
1893.59	0.985
1902.57	0.983
1911.54	0.983
1920.52	0.981
1929.49	0.981
1938.47	0.981
1947.44	0.983
1956.42	0.983
1965.39	0.983
1974.36	0.981
1983.34	0.987
1992.31	0.985
2001.29	0.985
2010.26	0.985
2019.24	0.983
2028.21	0.983
2037.19	0.983
2046.16	0.981
2055.13	0.9741
2064.11	0.9609
2073.08	0.9632
2082.06	0.9475
2091.03	0.9412
2100.01	0.9199
2108.98	0.8932
2117.95	0.945
2126.93	0.9436
2135.9	0.9076
2144.88	0.6612
2153.85	0.2107
2162.83	0.1754
2171.8	0.2036
2180.78	0.1818
2189.75	0.6438
2198.72	0.9625
2207.7	0.9612
2216.67	0.959
2225.65	0.963
2234.62	0.957
2243.6	0.963
2252.57	0.963
2261.54	0.961
2270.52	0.961
2279.49	0.961
2288.47	0.9583
2297.44	0.957
2306.42	0.9544
2315.39	0.9474
2324.37	0.943
2333.34	0.939
2342.31	0.935
2351.29	0.935
2360.26	0.935
2369.24	0.9386
2378.21	0.9456
2387.19	0.9506
2396.16	0.953
2405.14	0.951
2414.11	0.951
2423.08	0.9495
2432.06	0.949
2441.03	0.949
2450.01	0.947
2458.98	0.947
2467.96	0.9485
2476.93	0.945
2485.9	0.9446
2494.88	0.941
2503.85	0.939
2512.83	0.939
2521.8	0.9346
2530.78	0.9188
2539.75	0.888
2548.73	0.8091
2557.7	0.683
2566.67	0.6934
2575.65	0.8429
2584.62	0.9203
2593.6	0.939
2602.57	0.937
2611.55	0.935
2620.52	0.9277
2629.5	0.9224
2638.47	0.8981
2647.44	0.791
2656.42	0.6452
2665.39	0.7973
2674.37	0.8207
2683.34	0.9192
2692.32	0.9342
2701.29	0.937
2710.26	0.933
2719.24	0.933
2728.21	0.935
2737.19	0.9328
2746.16	0.931
2755.14	0.931
2764.11	0.933
2773.09	0.931
2782.06	0.931
2791.03	0.931
2800.01	0.929
2808.98	0.9269
2817.96	0.925
2826.93	0.925
2835.91	0.923
2844.88	0.923
2853.85	0.921
2862.83	0.919
2871.8	0.919
2880.78	0.921
2889.75	0.921
2898.73	0.921
2907.7	0.919
2916.68	0.917
2925.65	0.914
2934.62	0.913
2943.6	0.913
2952.57	0.913
2961.55	0.913
2970.52	0.913
2979.5	0.9121
2988.47	0.909
2997.45	0.907
3006.42	0.9089
3015.39	0.9127
3024.37	0.917
3033.34	0.919
3042.32	0.919
3051.29	0.917
3060.27	0.917
3069.24	0.919
3078.21	0.917
3087.19	0.9162
3096.16	0.913
3105.14	0.913
3114.11	0.913
3123.09	0.9143
3132.06	0.913
3141.04	0.915
3150.01	0.913
3158.98	0.909
3167.96	0.9127
3176.93	0.9083
3185.91	0.909
3194.88	0.913
3203.86	0.9074
3212.83	0.9063
3221.81	0.905
3230.78	0.903
3239.75	0.899
3248.73	0.8984
3257.7	0.893
3266.68	0.8904
3275.65	0.883
3284.63	0.8876
3293.6	0.893
3302.57	0.899
3311.55	0.8919
3320.52	0.8765
3329.5	0.877
3338.47	0.8835
3347.45	0.8925
3356.42	0.899
3365.4	0.9005
3374.37	0.901
3383.34	0.901
3392.32	0.901
3401.29	0.901
3410.27	0.901
3419.24	0.901
3428.22	0.9014
3437.19	0.905
3446.16	0.9046
3455.14	0.903
3464.11	0.901
3473.09	0.901
3482.06	0.9007
3491.04	0.899
3500.01	0.897
3508.99	0.897
3517.96	0.899
3526.93	0.899
3535.91	0.899
3544.88	0.899
3553.86	0.899
3562.83	0.899
3571.81	0.901
3580.78	0.9022
3589.76	0.9052
3598.73	0.909
3607.7	0.9068
3616.68	0.903
3625.65	0.9032
3634.63	0.911
3643.6	0.901
3652.58	0.911
3661.55	0.901
3670.52	0.899
3679.5	0.9051
3688.47	0.907
3697.45	0.905
3706.42	0.905
3715.4	0.903
3724.37	0.907
3733.35	0.9091
3742.32	0.911
3751.29	0.909
3760.27	0.905
3769.24	0.905
3778.22	0.903
3787.19	0.903
