Infrared Spectrum: ETHANEDINITRILE
Formula: C2 N2
CAS: 460-19-5
State: GAS (280 mmHg DILUTED TO A TOTAL PRESSURE OF 600 mmHg WITH N2)
Class: COBLENTZ
Instrument: DOW KBr FOREPRISM-GRATING
Instrument parameters: BLAZED AT 3.5, 12.0, 20.0 MICRON, CHANGED AT 5.0, 7.5, 14.9 MICRON
Sampling: TRANSMISSION
Path length: 10 CM CELL
Resolution: 4
Origin: DOW CHEMICAL COMPANY
1/CM	TRANSMITTANCE
458.487	1.02
467.387	1.023
476.287	1.023
485.188	1.023
494.088	1.025
502.988	1.027
511.888	1.027
520.788	1.025
529.689	1.02
538.589	1.018
547.489	1.015
556.389	1.011
565.289	1.004
574.19	0.997
583.09	0.991
591.99	0.984
600.89	0.969
609.79	0.954
618.691	0.915
627.591	0.947
636.491	0.979
645.391	0.991
654.291	0.993
663.191	0.988
672.092	0.983
680.992	0.977
689.892	0.984
698.792	0.977
707.692	0.618
716.593	0.228
725.493	0.391
734.393	0.252
743.293	0.403
752.193	0.72
761.094	0.917
769.994	0.99
778.894	1.012
787.794	1.018
796.694	1.018
805.595	1.019
814.495	1.018
823.395	1.016
832.295	1.012
841.195	1.011
850.096	1.009
858.996	1.004
867.896	0.998
876.796	1.002
885.696	1.002
894.597	0.998
903.497	1.002
912.397	1.006
921.297	1.012
930.197	1.013
939.098	1.015
947.998	1.015
956.898	1.016
965.798	1.018
974.698	1.019
983.598	1.019
992.499	1.019
1001.4	1.02
1010.3	1.022
1019.2	1.018
1028.1	1.019
1037	1.02
1045.9	1.02
1054.8	1.019
1063.7	1.018
1072.6	1.019
1081.5	1.019
1090.4	1.02
1099.3	1.023
1108.2	1.025
1117.1	1.026
1126	1.027
1134.9	1.026
1143.8	1.026
1152.7	1.025
1161.6	1.023
1170.5	1.022
1179.4	1.023
1188.3	1.023
1197.2	1.023
1206.1	1.025
1215	1.025
1223.9	1.025
1232.8	1.023
1241.7	1.02
1250.6	1.018
1259.5	1.016
1268.4	1.013
1277.3	1.011
1286.21	1.009
1295.11	1.009
1304.01	1.004
1312.91	1.005
1321.81	1.011
1330.71	1.012
1339.61	1.011
1348.51	1.009
1357.41	1.011
1366.31	1.011
1375.21	1.013
1384.11	1.026
1393.01	1.016
1401.91	1.008
1410.81	1.011
1419.71	1.004
1428.61	1.005
1437.51	0.997
1446.41	1
1455.31	0.994
1464.21	0.995
1473.11	0.99
1482.01	0.997
1490.91	0.993
1499.81	0.991
1508.71	0.986
1517.61	0.986
1526.51	0.983
1535.41	0.986
1544.31	0.981
1553.21	0.99
1562.11	0.993
1571.01	0.997
1579.91	1.001
1588.81	1
1597.71	0.998
1606.61	0.998
1615.51	0.994
1624.41	0.993
1633.31	0.979
1642.21	0.984
1651.11	0.965
1660.01	0.987
1668.91	0.988
1677.81	0.986
1686.71	0.986
1695.61	0.972
1704.51	0.979
1713.41	0.965
1722.31	0.977
1731.21	0.974
1740.12	0.977
1749.02	0.98
1757.92	0.981
1766.82	0.98
1775.72	0.983
1784.62	0.983
1793.52	0.986
1802.42	0.984
1811.32	0.986
1820.22	0.984
1829.12	0.984
1838.02	0.983
1846.92	0.983
1855.82	0.98
1864.72	0.983
1873.62	0.984
1882.52	0.984
1891.42	0.984
1900.32	0.983
1909.22	0.981
1918.12	0.981
1927.02	0.981
1935.92	0.981
1944.82	0.983
1953.72	0.979
1962.62	0.979
1971.52	0.98
1980.42	0.98
1989.32	0.981
1998.22	0.98
2007.12	0.98
2016.02	0.98
2024.92	0.98
2033.82	0.98
2042.72	0.979
2051.62	0.977
2060.52	0.9668
2069.42	0.959
2078.32	0.9648
2087.22	0.9438
2096.12	0.9395
2105.02	0.9143
2113.92	0.8922
2122.82	0.9422
2131.72	0.9344
2140.62	0.8964
2149.52	0.6876
2158.42	0.239
2167.32	0.2424
2176.22	0.2336
2185.12	0.2577
2194.02	0.7559
2202.93	0.9556
2211.83	0.9576
2220.73	0.955
2229.63	0.9575
2238.53	0.954
2247.43	0.9583
2256.33	0.959
2265.23	0.9587
2274.13	0.9574
2283.03	0.956
2291.93	0.956
2300.83	0.9547
2309.73	0.951
2318.63	0.9463
2327.53	0.941
2336.43	0.9346
2345.33	0.933
2354.23	0.931
2363.13	0.928
2372.03	0.9352
2380.93	0.9408
2389.83	0.947
2398.73	0.948
2407.63	0.948
2416.53	0.947
2425.43	0.947
2434.33	0.947
2443.23	0.945
2452.13	0.945
2461.03	0.945
2469.93	0.944
2478.83	0.942
2487.73	0.941
2496.63	0.94
2505.53	0.9359
2514.43	0.935
2523.33	0.9334
2532.23	0.9196
2541.13	0.8915
2550.03	0.8263
2558.93	0.6745
2567.83	0.6451
2576.73	0.8301
2585.63	0.9149
2594.53	0.935
2603.43	0.9317
2612.33	0.933
2621.23	0.9267
2630.13	0.92
2639.03	0.91
2647.93	0.8509
2656.84	0.7169
2665.74	0.7957
2674.64	0.8285
2683.54	0.9134
2692.44	0.9325
2701.34	0.931
2710.24	0.931
2719.14	0.9325
2728.04	0.93
2736.94	0.93
2745.84	0.93
2754.74	0.93
2763.64	0.93
2772.54	0.93
2781.44	0.928
2790.34	0.9272
2799.24	0.924
2808.14	0.922
2817.04	0.922
2825.94	0.922
2834.84	0.9202
2843.74	0.917
2852.64	0.9161
2861.54	0.916
2870.44	0.916
2879.34	0.916
2888.24	0.916
2897.14	0.915
2906.04	0.913
2914.94	0.91
2923.84	0.909
2932.74	0.908
2941.64	0.908
2950.54	0.909
2959.44	0.909
2968.34	0.909
2977.24	0.906
2986.14	0.905
2995.04	0.905
3003.94	0.905
3012.84	0.9091
3021.74	0.913
3030.64	0.915
3039.54	0.915
3048.44	0.913
3057.34	0.913
3066.24	0.912
3075.14	0.912
3084.04	0.912
3092.94	0.912
3101.84	0.912
3110.75	0.912
3119.65	0.91
3128.55	0.909
3137.45	0.909
3146.35	0.908
3155.25	0.906
3164.15	0.906
3173.05	0.905
3181.95	0.905
3190.85	0.903
3199.75	0.902
3208.65	0.901
3217.55	0.9013
3226.45	0.902
3235.35	0.8957
3244.25	0.894
3253.15	0.889
3262.05	0.8846
3270.95	0.8823
3279.85	0.881
3288.75	0.8865
3297.65	0.894
3306.55	0.892
3315.45	0.8818
3324.35	0.874
3333.25	0.8789
3342.15	0.8859
3351.05	0.8914
3359.95	0.895
3368.85	0.8969
3377.75	0.899
3386.65	0.899
3395.55	0.897
3404.45	0.899
3413.35	0.9
3422.25	0.9015
3431.15	0.902
3440.05	0.902
3448.95	0.902
3457.85	0.901
3466.75	0.899
3475.65	0.899
3484.55	0.899
3493.45	0.898
3502.35	0.896
3511.25	0.896
3520.15	0.896
3529.05	0.896
3537.95	0.896
3546.85	0.8987
3555.75	0.901
3564.65	0.901
3573.56	0.9017
3582.46	0.902
3591.36	0.902
3600.26	0.902
3609.16	0.902
3618.06	0.902
3626.96	0.903
3635.86	0.903
3644.76	0.903
3653.66	0.903
3662.56	0.8994
3671.46	0.899
3680.36	0.9028
3689.26	0.905
3698.16	0.905
3707.06	0.9022
3715.96	0.9028
3724.86	0.903
3733.76	0.905
3742.66	0.903
3751.56	0.903
3760.46	0.905
3769.36	0.905
3778.26	0.9032
3787.16	0.903
