Infrared Spectrum: 1,1-DIFLUORO-2,2-DICHLORO ETHANE
Formula: C2 H2 Cl2 F2
CAS: 471-43-2
State: SOLUTION (10% CCl4 FOR 2.5-7.5, 10% CS2 FOR 7.5-16 MICRONS)
Class: COBLENTZ
Instrument: Not specified, most likely a prism, grating, or hybrid spectrometer.
Sampling: TRANSMISSION
Path length: 0.01 CM, 0.01 CM
Resolution: 4
Origin: DOW CHEMICAL COMPANY
MICROMETERS	TRANSMITTANCE
2.042	0.908
2.08218	0.908
2.12236	0.908
2.16254	0.908
2.20272	0.908
2.2429	0.908
2.28308	0.908
2.32326	0.912
2.36344	0.912
2.40362	0.913
2.4438	0.913
2.48398	0.915
2.52416	0.92
2.56434	0.928
2.60452	0.93
2.6447	0.93
2.68488	0.93
2.72506	0.93
2.76524	0.93
2.80542	0.93
2.8456	0.928
2.88577	0.928
2.92595	0.91
2.96613	0.905
3.00631	0.913
3.04649	0.917
3.08667	0.915
3.12685	0.923
3.16703	0.932
3.20721	0.928
3.24739	0.93
3.28757	0.92
3.32775	0.802
3.36793	0.829
3.40811	0.917
3.44829	0.932
3.48847	0.933
3.52865	0.938
3.56883	0.942
3.60901	0.94
3.64919	0.94
3.68937	0.94
3.72955	0.94
3.76973	0.942
3.80991	0.942
3.85009	0.942
3.89027	0.943
3.93045	0.948
3.97063	0.95
4.01081	0.951
4.05099	0.951
4.09117	0.945
4.13135	0.945
4.17153	0.95
4.21171	0.955
4.25189	0.953
4.29207	0.953
4.33225	0.933
4.37243	0.933
4.41261	0.933
4.45279	0.933
4.49297	0.94
4.53315	0.945
4.57332	0.942
4.6135	0.937
4.65368	0.935
4.69386	0.942
4.73404	0.951
4.77422	0.955
4.8144	0.955
4.85458	0.955
4.89476	0.955
4.93494	0.955
4.97512	0.953
5.0153	0.953
5.05548	0.953
5.09566	0.953
5.13584	0.953
5.17602	0.956
5.2162	0.956
5.25638	0.955
5.29656	0.953
5.33674	0.955
5.37692	0.947
5.4171	0.947
5.45728	0.948
5.49746	0.947
5.53764	0.948
5.57782	0.95
5.618	0.953
5.65818	0.953
5.69836	0.951
5.73854	0.951
5.77872	0.95
5.8189	0.948
5.85908	0.948
5.89926	0.945
5.93944	0.94
5.97962	0.94
6.0198	0.933
6.05998	0.925
6.10016	0.913
6.14034	0.907
6.18052	0.869
6.22069	0.804
6.26087	0.721
6.30105	0.678
6.34123	0.645
6.38141	0.602
6.42159	0.539
6.46177	0.534
6.50195	0.591
6.54213	0.658
6.58231	0.703
6.62249	0.759
6.66267	0.824
6.70285	0.854
6.74303	0.885
6.78321	0.903
6.82339	0.908
6.86357	0.908
6.90375	0.91
6.94393	0.915
6.98411	0.91
7.02429	0.908
7.06447	0.91
7.10465	0.907
7.14483	0.854
7.18501	0.622
7.22519	0.425
7.26537	0.483
7.30555	0.645
7.34573	0.642
7.38591	0.653
7.42609	0.774
7.46627	0.826
7.50645	0.855
7.54663	0.875
7.58681	0.88
7.62699	0.874
7.66717	0.847
7.70735	0.832
7.74753	0.807
7.78771	0.773
7.82789	0.735
7.86807	0.705
7.90824	0.706
7.94842	0.788
7.9886	0.806
8.02878	0.806
8.06896	0.774
8.10914	0.743
8.14932	0.733
8.1895	0.597
8.22968	0.43
8.26986	0.408
8.31004	0.486
8.35022	0.645
8.3904	0.675
8.43058	0.678
8.47076	0.678
8.51094	0.657
8.55112	0.586
8.5913	0.442
8.63148	0.206
8.67166	0.091
8.71184	0.152
8.75202	0.329
8.7922	0.362
8.83238	0.346
8.87256	0.35
8.91274	0.251
8.95292	0.14
8.9931	0.087
9.03328	0.092
9.07346	0.115
9.11364	0.081
9.15382	0.033
9.194	0.019
9.23418	0.034
9.27436	0.122
9.31454	0.307
9.35472	0.405
9.3949	0.453
9.43508	0.422
9.47526	0.296
9.51544	0.382
9.55561	0.629
9.59579	0.591
9.63597	0.466
9.67615	0.523
9.71633	0.687
9.75651	0.743
9.79669	0.743
9.83687	0.746
9.87705	0.786
9.91723	0.827
9.95741	0.837
9.99759	0.841
10.0378	0.834
10.078	0.796
10.1181	0.635
10.1583	0.508
10.1985	0.483
10.2387	0.533
10.2789	0.548
10.319	0.543
10.3592	0.634
10.3994	0.688
10.4396	0.746
10.4797	0.807
10.5199	0.841
10.5601	0.859
10.6003	0.88
10.6405	0.89
10.6806	0.899
10.7208	0.902
10.761	0.905
10.8012	0.908
10.8414	0.908
10.8815	0.907
10.9217	0.912
10.9619	0.915
11.0021	0.917
11.0423	0.917
11.0824	0.91
11.1226	0.905
11.1628	0.899
11.203	0.887
11.2432	0.869
11.2833	0.855
11.3235	0.831
11.3637	0.816
11.4039	0.806
11.4441	0.791
11.4842	0.771
11.5244	0.756
11.5646	0.733
11.6048	0.71
11.645	0.687
11.6851	0.658
11.7253	0.622
11.7655	0.566
11.8057	0.504
11.8459	0.488
11.886	0.473
11.9262	0.412
11.9664	0.375
12.0066	0.359
12.0468	0.355
12.0869	0.359
12.1271	0.36
12.1673	0.291
12.2075	0.167
12.2477	0.049
12.2878	0.026
12.328	0.026
12.3682	0.056
12.4084	0.134
12.4486	0.241
12.4887	0.364
12.5289	0.42
12.5691	0.432
12.6093	0.402
12.6495	0.365
12.6896	0.37
12.7298	0.455
12.77	0.551
12.8102	0.615
12.8504	0.644
12.8905	0.658
12.9307	0.658
12.9709	0.635
13.0111	0.577
13.0513	0.476
13.0914	0.403
13.1316	0.365
13.1718	0.37
13.212	0.447
13.2522	0.524
13.2923	0.577
13.3325	0.619
13.3727	0.649
13.4129	0.68
13.4531	0.701
13.4932	0.711
13.5334	0.713
13.5736	0.713
13.6138	0.706
13.654	0.697
13.6941	0.692
13.7343	0.695
13.7745	0.706
13.8147	0.718
13.8548	0.73
13.895	0.735
13.9352	0.738
13.9754	0.74
14.0156	0.741
14.0557	0.738
14.0959	0.731
14.1361	0.726
14.1763	0.723
14.2165	0.718
14.2566	0.715
14.2968	0.71
14.337	0.705
14.3772	0.7
14.4174	0.693
14.4575	0.687
14.4977	0.68
14.5379	0.672
14.5781	0.662
14.6183	0.653
14.6584	0.644
14.6986	0.632
14.7388	0.624
14.779	0.612
14.8192	0.604
14.8593	0.591
14.8995	0.586
14.9397	0.581
14.9799	0.567
15.0201	0.536
15.0602	0.503
15.1004	0.465
15.1406	0.443
15.1808	0.407
15.221	0.382
15.2611	0.337
15.3013	0.302
15.3415	0.266
15.3817	0.246
15.4219	0.228
15.462	0.23
15.5022	0.24
15.5424	0.259
15.5826	0.284
15.6228	0.302
15.6629	0.314
15.7031	0.331
15.7433	0.346
15.7835	0.357
15.8237	0.367
15.8638	0.375
15.904	0.38
