Infrared Spectrum: PROPANE, 2-IODO-2-METHYL-
Formula: C4 H9 I
CAS: 558-17-8
State: SOLUTION (10% CCl4 FOR 3800-1340, 10% CS2 FOR 1340-450)
Class: COBLENTZ III
Instrument: DOW KBr FOREPRISM-GRATING
Instrument parameters: BLAZED AT 3.5, 12.0, 20.0 MICRON AND CHANGED AT 5.0, 7.5, 14.9 MICRON
Sampling: TRANSMISSION
Path length: 0.0112 CM, 0.0105 CM
Resolution: 2
Origin: DOW CHEMICAL COMPANY
1/CM	TRANSMITTANCE
3782	0.8806
3773	0.8805
3764	0.8805
3755	0.8804
3746	0.8804
3737	0.8804
3728	0.8805
3719	0.8806
3710	0.8808
3701	0.884
3692	0.8854
3683	0.8862
3674	0.8857
3665	0.8845
3656	0.8834
3647	0.8823
3638	0.8821
3629	0.8818
3620	0.8818
3611	0.8817
3602	0.8815
3593	0.8811
3584	0.8806
3575	0.88
3566	0.8795
3557	0.8789
3548	0.8786
3539	0.8786
3530	0.8786
3521	0.8786
3512	0.8786
3503	0.8787
3494	0.8795
3485	0.8801
3476	0.8808
3467	0.8818
3458	0.8832
3449	0.8846
3440	0.8883
3431	0.892
3422	0.8937
3413	0.8947
3404	0.8946
3395	0.8937
3386	0.8903
3377	0.8871
3368	0.886
3359	0.885
3350	0.8846
3341	0.8844
3332	0.8842
3323	0.8839
3314	0.8834
3305	0.8825
3296	0.8814
3287	0.8789
3278	0.8759
3269	0.8723
3260	0.8686
3251	0.8649
3242	0.8618
3233	0.859
3224	0.8566
3215	0.8566
3206	0.8566
3197	0.8583
3188	0.863
3179	0.864
3170	0.863
3161	0.861
3152	0.8616
3143	0.8623
3134	0.8618
3125	0.8609
3116	0.86
3107	0.8593
3098	0.8591
3089	0.8589
3080	0.8581
3071	0.8571
3062	0.8548
3053	0.8521
3044	0.8497
3035	0.8467
3026	0.8406
3017	0.8299
3008	0.8075
2999	0.7067
2990	0.2447
2981	0.3677
2972	0.3902
2963	0.2994
2954	0.4798
2945	0.6167
2936	0.4573
2927	0.568
2918	0.2493
2909	0.4009
2900	0.56
2891	0.3595
2882	0.428
2873	0.4892
2864	0.4653
2855	0.5602
2846	0.6262
2837	0.7395
2828	0.7772
2819	0.8011
2810	0.8101
2801	0.8241
2792	0.8407
2783	0.8375
2774	0.8036
2765	0.8405
2756	0.8513
2747	0.8446
2738	0.8486
2729	0.8444
2720	0.7614
2711	0.8161
2702	0.8444
2693	0.849
2684	0.8466
2675	0.8359
2666	0.8382
2657	0.8468
2648	0.8495
2639	0.8508
2630	0.8527
2621	0.854
2612	0.8453
2603	0.8474
2594	0.8493
2585	0.8505
2576	0.8518
2567	0.853
2558	0.8542
2549	0.8551
2540	0.856
2531	0.8568
2522	0.8578
2513	0.8588
2504	0.8597
2495	0.8606
2486	0.8612
2477	0.8616
2468	0.8609
2459	0.8597
2450	0.8589
2441	0.858
2432	0.8566
2423	0.855
2414	0.8532
2405	0.8512
2396	0.8482
2387	0.8438
2378	0.8442
2369	0.8509
2360	0.8563
2351	0.8568
2342	0.8566
2333	0.8511
2324	0.8536
2315	0.8492
2306	0.8447
2297	0.8405
2288	0.8365
2279	0.8382
2270	0.8383
2261	0.8401
2252	0.847
2243	0.8533
2234	0.8577
2225	0.8607
2216	0.8625
2207	0.8644
2198	0.866
2189	0.8668
2180	0.8653
2171	0.8581
2162	0.8509
2153	0.8545
2144	0.8581
2135	0.861
2126	0.8631
2117	0.8651
2108	0.8667
2099	0.8681
2090	0.869
2081	0.8699
2072	0.8706
2063	0.8709
2054	0.8712
2045	0.8713
2036	0.8713
2027	0.8711
2018	0.8709
2009	0.8709
2000	0.8709
1991	0.8642
1982	0.8547
1973	0.8536
1964	0.8539
1955	0.8728
1946	0.8517
1937	0.8525
1928	0.853
1919	0.8528
1910	0.8521
1901	0.8521
1892	0.8521
1883	0.8486
1874	0.8496
1865	0.8417
1856	0.8308
1847	0.8455
1838	0.849
1829	0.85
1820	0.8516
1811	0.8524
1802	0.8524
1793	0.8534
1784	0.8545
1775	0.8545
1766	0.8536
1757	0.8518
1748	0.8487
1739	0.847
1730	0.846
1721	0.8457
1712	0.8456
1703	0.8457
1694	0.8468
1685	0.8486
1676	0.8508
1667	0.8535
1658	0.8601
1649	0.8733
1640	0.8768
1631	0.8561
1622	0.8371
1613	0.8081
1604	0.7662
1595	0.7011
1586	0.6312
1577	0.6014
1568	0.5588
1559	0.4924
1550	0.4317
1541	0.4505
1532	0.5086
1523	0.5666
1514	0.6247
1505	0.6828
1496	0.7315
1487	0.7451
1478	0.7247
1469	0.5258
1460	0.6754
1451	0.2675
1442	0.6068
1433	0.7619
1424	0.8091
1415	0.8147
1406	0.8112
1397	0.8186
1388	0.7987
1379	0.8028
1370	0.0729
1361	0.5572
1352	0.7869
1343	0.8284
1334	0.8378
1325	0.8441
1316	0.8483
1307	0.8504
1298	0.8518
1289	0.8492
1280	0.8508
1271	0.8538
1262	0.8546
1253	0.8513
1244	0.8568
1235	0.8474
1226	0.6317
1217	0.7984
1208	0.8253
1199	0.8333
1190	0.8366
1181	0.8228
1172	0.8259
1163	0.8274
1154	0.8014
1145	0.6831
1136	0.0036
1127	0.2175
1118	0.7158
1109	0.8061
1100	0.8413
1091	0.8503
1082	0.8524
1073	0.8512
1064	0.8446
1055	0.8563
1046	0.8647
1037	0.8652
1028	0.8547
1019	0.8421
1010	0.8738
1001	0.8832
992	0.8809
983	0.8777
974	0.8754
965	0.8744
956	0.8745
947	0.8744
938	0.874
929	0.8747
920	0.8753
911	0.8752
902	0.8737
893	0.8625
884	0.8301
875	0.7946
866	0.753
857	0.7238
848	0.751
839	0.8273
830	0.8609
821	0.8701
812	0.8643
803	0.5653
794	0.8071
785	0.8299
776	0.8542
767	0.8715
758	0.8756
749	0.8739
740	0.8712
731	0.8709
722	0.8715
713	0.8721
704	0.872
695	0.8718
686	0.8713
677	0.8709
668	0.881
659	0.8734
650	0.8462
641	0.858
632	0.8748
623	0.8934
614	0.9027
605	0.9074
596	0.9098
587	0.9116
578	0.9128
569	0.9137
560	0.9142
551	0.914
542	0.9118
533	0.9047
524	0.8706
515	0.8634
506	0.8677
497	0.8288
488	0.4928
479	0.6598
470	0.7846
461	0.8262
452	0.8412
