Infrared Spectrum: PROPANE, 2-IODO-2-METHYL-
Formula: C4 H9 I
CAS: 558-17-8
State: LIQUID
Class: COBLENTZ III
Instrument: PERKIN-ELMER 521 (GRATING)
Instrument parameters: FILTERS AT 3150, 2500, 2000, 1150, 700, 410 AND GRATING CHANGES AT 2000, 630 CM^-^1
Sampling: TRANSMISSION
Path length: SMEAR, KBr PLATES
Resolution: 4
Origin: STANDARD OIL OF OHIO
1/CM	TRANSMITTANCE
249.082	0.053
259.099	0.058
269.115	0.064
279.132	0.079
289.149	0.089
299.166	0.125
309.182	0.153
319.199	0.194
329.216	0.251
339.232	0.302
349.249	0.374
359.266	0.459
369.283	0.52
379.299	0.585
389.316	0.632
399.333	0.692
409.349	0.724
419.366	0.763
429.383	0.799
439.4	0.825
449.416	0.833
459.433	0.825
469.45	0.782
479.466	0.562
489.483	0.313
499.5	0.699
509.517	0.778
519.533	0.758
529.55	0.849
539.567	0.879
549.583	0.891
559.6	0.892
569.617	0.897
579.634	0.899
589.65	0.901
599.667	0.901
609.684	0.901
619.7	0.896
629.717	0.892
639.734	0.889
649.751	0.89
659.767	0.889
669.784	0.886
679.801	0.886
689.818	0.88
699.834	0.879
709.851	0.876
719.868	0.874
729.884	0.867
739.901	0.859
749.918	0.869
759.935	0.869
769.951	0.843
779.968	0.815
789.985	0.772
800.001	0.4949
810.018	0.787
820.035	0.856
830.052	0.869
840.068	0.87
850.085	0.871
860.102	0.869
870.118	0.866
880.135	0.87
890.152	0.869
900.169	0.871
910.185	0.866
920.202	0.866
930.219	0.86
940.235	0.863
950.252	0.861
960.269	0.86
970.286	0.858
980.302	0.855
990.319	0.854
1000.34	0.846
1010.35	0.834
1020.37	0.798
1030.39	0.795
1040.4	0.829
1050.42	0.82
1060.44	0.793
1070.45	0.8
1080.47	0.82
1090.49	0.798
1100.5	0.773
1110.52	0.6819
1120.54	0.4029
1130.55	0.084
1140.57	0.1251
1150.59	0.4911
1160.6	0.688
1170.62	0.733
1180.64	0.753
1190.65	0.762
1200.67	0.76
1210.69	0.748
1220.7	0.6509
1230.72	0.5712
1240.74	0.833
1250.75	0.85
1260.77	0.854
1270.79	0.858
1280.8	0.858
1290.82	0.859
1300.84	0.858
1310.85	0.846
1320.87	0.841
1330.89	0.834
1340.9	0.805
1350.92	0.7309
1360.94	0.4068
1370.95	0.3262
1380.97	0.672
1390.99	0.709
1401	0.742
1411.02	0.737
1421.04	0.732
1431.05	0.669
1441.07	0.4599
1451.09	0.199
1461.1	0.529
1471.12	0.5611
1481.14	0.7381
1491.15	0.801
1501.17	0.828
1511.19	0.834
1521.2	0.84
1531.22	0.858
1541.24	0.861
1551.26	0.86
1561.27	0.867
1571.29	0.867
1581.31	0.865
1591.32	0.861
1601.34	0.859
1611.36	0.86
1621.37	0.856
1631.39	0.859
1641.41	0.858
1651.42	0.855
1661.44	0.855
1671.46	0.846
1681.47	0.839
1691.49	0.838
1701.51	0.836
1711.52	0.834
1721.54	0.836
1731.56	0.839
1741.57	0.85
1751.59	0.856
1761.61	0.858
1771.62	0.858
1781.64	0.86
1791.66	0.864
1801.67	0.863
1811.69	0.865
1821.71	0.864
1831.72	0.861
1841.74	0.853
1851.76	0.823
1861.77	0.84
1871.79	0.858
1881.81	0.858
1891.82	0.865
1901.84	0.865
1911.86	0.865
1921.87	0.865
1931.89	0.864
1941.91	0.864
1951.92	0.863
1961.94	0.869
1971.96	0.87
1981.97	0.87
1991.99	0.87
2002.01	0.871
2012.02	0.869
2022.04	0.869
2032.06	0.869
2042.07	0.866
2052.09	0.867
2062.11	0.8671
2072.12	0.869
2082.14	0.87
2092.16	0.869
2102.17	0.8689
2112.19	0.866
2122.21	0.865
2132.22	0.8639
2142.24	0.8509
2152.26	0.849
2162.27	0.8334
2172.29	0.8542
2182.31	0.864
2192.32	0.864
2202.34	0.8698
2212.36	0.869
2222.38	0.867
2232.39	0.8669
2242.41	0.8628
2252.43	0.8597
2262.44	0.8427
2272.46	0.8563
2282.48	0.8623
2292.49	0.8501
2302.51	0.859
2312.53	0.859
2322.54	0.859
2332.56	0.8589
2342.58	0.8535
2352.59	0.8439
2362.61	0.8428
2372.63	0.8409
2382.64	0.8297
2392.66	0.8268
2402.68	0.8501
2412.69	0.8554
2422.71	0.8601
2432.73	0.865
2442.74	0.864
2452.76	0.863
2462.78	0.864
2472.79	0.8647
2482.81	0.8602
2492.83	0.8588
2502.84	0.856
2512.86	0.856
2522.88	0.8564
2532.89	0.856
2542.91	0.856
2552.93	0.8564
2562.94	0.853
2572.96	0.8476
2582.98	0.8396
2592.99	0.8316
2603.01	0.838
2613.03	0.8272
2623.04	0.8382
2633.06	0.836
2643.08	0.836
2653.09	0.8324
2663.11	0.8246
2673.13	0.801
2683.14	0.8252
2693.16	0.8298
2703.18	0.8205
2713.19	0.7482
2723.21	0.7874
2733.23	0.8267
2743.24	0.8183
2753.26	0.829
2763.28	0.8232
2773.29	0.755
2783.31	0.813
2793.33	0.8009
2803.34	0.7467
2813.36	0.7317
2823.38	0.7223
2833.39	0.6295
2843.41	0.5238
2853.43	0.3877
2863.44	0.3452
2873.46	0.3317
2883.48	0.2031
2893.5	0.3121
2903.51	0.3158
2913.53	0.2135
2923.55	0.445
2933.56	0.3539
2943.58	0.4555
2953.6	0.2237
2963.61	0.2629
2973.63	0.2225
2983.65	0.2402
2993.66	0.5299
3003.68	0.7081
3013.7	0.783
3023.71	0.8114
3033.73	0.8253
3043.75	0.8361
3053.76	0.841
3063.78	0.8417
3073.8	0.843
3083.81	0.8436
3093.83	0.841
3103.85	0.84
3113.86	0.8394
3123.88	0.849
3133.9	0.8442
3143.91	0.8406
3153.93	0.8386
3163.95	0.8368
3173.96	0.8356
3183.98	0.83
3194	0.8236
3204.01	0.8106
3214.03	0.811
3224.05	0.82
3234.06	0.8268
3244.08	0.829
3254.1	0.8318
3264.11	0.84
3274.13	0.841
3284.15	0.849
3294.16	0.8539
3304.18	0.8554
3314.2	0.856
3324.21	0.858
3334.23	0.8551
3344.25	0.8495
3354.26	0.8447
3364.28	0.8295
3374.3	0.8395
3384.31	0.853
3394.33	0.8545
3404.35	0.856
3414.36	0.855
3424.38	0.855
3434.4	0.8526
3444.41	0.853
3454.43	0.855
3464.45	0.855
3474.46	0.855
3484.48	0.858
3494.5	0.8585
3504.51	0.859
3514.53	0.86
3524.55	0.858
3534.56	0.8595
3544.58	0.858
3554.6	0.86
3564.62	0.848
3574.63	0.86
3584.65	0.851
3594.67	0.858
3604.68	0.8555
3614.7	0.854
3624.72	0.8545
3634.73	0.86
3644.75	0.845
3654.77	0.86
3664.78	0.859
3674.8	0.8551
3684.82	0.8556
3694.83	0.86
3704.85	0.8569
3714.87	0.856
3724.88	0.856
3734.9	0.845
3744.92	0.844
3754.93	0.855
3764.95	0.8572
3774.97	0.856
3784.98	0.858
3795	0.8512
3805.02	0.8546
3815.03	0.851
3825.05	0.8544
3835.07	0.854
3845.08	0.8518
3855.1	0.858
3865.12	0.8534
3875.13	0.8504
3885.15	0.8519
3895.17	0.8472
