Infrared Spectrum: Methane, tribromo-
Formula: C H Br 3
CAS: 75-25-2
State: gas
Origin: Sadtler Research Labs Under US-EPA Contract
1/CM	ABSORBANCE
450	0.0184696
462	0.0176578
474	0.0131926
486	0.0101481
498	0.0174548
510	0.0186726
522	0.0188756
534	0.0103511
546	0.0223259
558	0.00893037
570	0.00426222
582	0.01644
594	0.0117719
606	0.0117719
618	0.0174548
630	0.0349096
642	0.187741
654	0.845544
666	2.02963
678	0.247818
690	0.179013
702	0.0907245
714	0.00994519
726	0.0146133
738	0.0182667
750	0.0296326
762	0.0215141
774	0.00791556
786	0.00669778
798	0.00771259
810	0.00791556
822	0.00669778
834	0.00730667
846	0.0038563
858	0.00487111
870	0.00730667
882	0.0101481
894	0.00771259
906	0.00750963
918	0.00791556
930	0.00669778
942	0.00730667
954	0.00771259
966	0.00852445
978	0.0117719
990	0.0103511
1002	0.0113659
1014	0.0115689
1026	0.0178607
1038	0.022123
1050	0.0300385
1062	0.02192
1074	0.01096
1086	0.0093363
1098	0.00953926
1110	0.0178607
1122	0.0450578
1134	0.124619
1146	1.03146
1158	0.145524
1170	0.0138015
1182	0.0101481
1194	0.0127867
1206	0.0101481
1218	0.00690074
1230	0.00771259
1242	0.00811852
1254	0.00811852
1266	0.00791556
1278	0.00872741
1290	0.0160341
1302	0.0184696
1314	0.0119748
1326	0.0133956
1338	0.0125837
1350	0.01096
1362	0.0123807
1374	0.01096
1386	0.0144104
1398	0.0140044
1410	0.0113659
1422	0.0125837
1434	0.0133956
1446	0.0160341
1458	0.022123
1470	0.0261822
1482	0.0288207
1494	0.0263852
1506	0.0184696
1518	0.0119748
1530	0.00750963
1542	0.00974222
1554	0.0093363
1566	0.0135985
1578	0.021717
1590	0.0257763
1602	0.0209052
1614	0.0142074
1626	0.00730667
1638	0.00791556
1650	0.00548
1662	0.00405926
1674	0.00405926
1686	0.00548
1698	0.00426222
1710	0.00345037
1722	0.00324741
1734	0.00324741
1746	0.00324741
1758	0.00284148
1770	0.00405926
1782	0.00345037
1794	0.00426222
1806	0.00446519
1818	0.00365333
1830	0.00405926
1842	0.00284148
1854	0.00365333
1866	0.00324741
1878	0.00284148
1890	0.00405926
1902	0.00466815
1914	0.00466815
1926	0.00426222
1938	0.00527704
1950	0.00446519
1962	0.00466815
1974	0.00426222
1986	0.0038563
1998	0.00345037
2010	0.00243556
2022	0.00182667
2034	0.00202963
2046	0.00142074
2058	0.00202963
2070	0.000811852
2082	0
2094	0.00142074
2106	0.0016237
2118	0.000608889
2130	0.000811852
2142	0.000811852
2154	0.000608889
2166	0.000202963
2178	0
2190	0.00121778
2202	0.00142074
2214	0.000811852
2226	0.000811852
2238	0.000811852
2250	0.00223259
2262	0.00649482
2274	0.00588593
2286	0.00365333
2298	0.00466815
2310	0.00182667
2322	0
2334	0
2346	0
2358	0
2370	0
2382	0
2394	0.000202963
2406	0.000202963
2418	0.000405926
2430	0.000811852
2442	0.0016237
2454	0.00202963
2466	0.00284148
2478	0.00345037
2490	0.00324741
2502	0.00324741
2514	0.00243556
2526	0.00263852
2538	0.00243556
2550	0.00324741
2562	0.00405926
2574	0.00365333
2586	0.00345037
2598	0.00405926
2610	0.00345037
2622	0.00345037
2634	0.00365333
2646	0.00345037
2658	0.00487111
2670	0.00466815
2682	0.00487111
2694	0.00690074
2706	0.00608889
2718	0.00629185
2730	0.00771259
2742	0.00893037
2754	0.0113659
2766	0.0127867
2778	0.0123807
2790	0.0138015
2802	0.0148163
2814	0.0182667
2826	0.0213111
2838	0.0241526
2850	0.0255733
2862	0.0267911
2874	0.0318652
2886	0.0308504
2898	0.0349096
2910	0.0365333
2922	0.0405926
2934	0.0434341
2946	0.0414045
2958	0.0450578
2970	0.0434341
2982	0.044043
2994	0.0446519
3006	0.0487111
3018	0.0430282
3030	0.0503348
3042	0.06576
3054	0.0807793
3066	0.0456667
3078	0.044043
3090	0.0387659
3102	0.0345037
3114	0.0300385
3126	0.0300385
3138	0.0296326
3150	0.0245585
3162	0.0241526
3174	0.0207022
3186	0.0229348
3198	0.0184696
3210	0.0215141
3222	0.0202963
3234	0.0198904
3246	0.0192815
3258	0.0156282
3270	0.0204993
3282	0.0194844
3294	0.0160341
3306	0.0194844
3318	0.0180637
3330	0.0213111
3342	0.0194844
3354	0.0200933
3366	0.0196874
3378	0.0200933
3390	0.0229348
3402	0.0184696
3414	0.0180637
3426	0.016237
3438	0.0186726
3450	0.0158311
3462	0.0148163
3474	0.0117719
3486	0.00811852
3498	0.00872741
3510	0.00994519
3522	0.00690074
3534	0.0038563
3546	0.00750963
3558	0.00121778
3570	0.00811852
3582	0.00243556
3594	0.00629185
3606	0.00243556
3618	0.00324741
3630	0.00284148
3642	0.00405926
3654	0.000811852
3666	0
3678	0.00487111
3690	0.00284148
3702	0.0016237
3714	0.0038563
3726	0.00405926
3738	0.00426222
3750	0.00405926
3762	0.00223259
3774	0.00730667
3786	0.00548
3798	0.00608889
3810	0.00588593
3822	0.00405926
3834	0.00629185
3846	0.00649482
3858	0.00487111
3870	0.00852445
3882	0.00872741
3894	0.00487111
3906	0.00994519
3918	0.00608889
3930	0.00629185
3942	0.00527704
3954	0.00629185
3966	0.00223259
