Infrared Spectrum: METHANE, TRIBROMO-
Formula: C H Br3
CAS: 75-25-2
State: LIQUID (NEAT)
Boiling point: 150 C
Class: COBLENTZ III
Instrument: PERKIN-ELMER 283
Sampling: TRANSMISSION
Path length: 0.01 CM CsI CELL
Resolution: 4
Origin: DOW CHEMICAL COMPANY
1/CM	TRANSMITTANCE
206.877	0.856
216.982	0.7971
227.088	0.887
237.193	0.912
247.298	0.918
257.403	0.924
267.509	0.921
277.614	0.928
287.719	0.936
297.825	0.941
307.93	0.947
318.035	0.95
328.14	0.954
338.246	0.954
348.351	0.955
358.456	0.952
368.561	0.922
378.667	0.918
388.772	0.939
398.877	0.944
408.983	0.92
419.088	0.825
429.193	0.728
439.298	0.797
449.404	0.918
459.509	0.922
469.614	0.906
479.72	0.885
489.825	0.801
499.93	0.761
510.035	0.811
520.141	0.815
530.246	0.752
540.351	0.1677
550.456	0.751
560.562	0.736
570.667	0.754
580.772	0.748
590.878	0.685
600.983	0.531
611.088	0.338
621.193	0.0662
631.299	0.007
641.404	0.004
651.509	0.007
661.615	0.007
671.72	0.01
681.825	0.027
691.93	0.016
702.036	0.248
712.141	0.568
722.246	0.581
732.351	0.479
742.457	0.3341
752.562	0.3709
762.667	0.5489
772.773	0.85
782.878	0.912
792.983	0.916
803.088	0.895
813.194	0.918
823.299	0.948
833.404	0.948
843.51	0.933
853.615	0.916
863.72	0.859
873.825	0.811
883.931	0.858
894.036	0.937
904.141	0.954
914.246	0.952
924.352	0.955
934.457	0.958
944.562	0.958
954.668	0.958
964.773	0.96
974.878	0.959
984.983	0.959
995.089	0.957
1005.19	0.957
1015.3	0.954
1025.4	0.944
1035.51	0.94
1045.62	0.943
1055.72	0.931
1065.83	0.901
1075.93	0.835
1086.04	0.791
1096.14	0.68
1106.25	0.537
1116.35	0.3309
1126.46	0.0371
1136.56	0
1146.67	0.001
1156.77	0.022
1166.88	0.1889
1176.98	0.419
1187.09	0.497
1197.19	0.594
1207.3	0.774
1217.4	0.784
1227.51	0.88
1237.62	0.91
1247.72	0.918
1257.83	0.918
1267.93	0.895
1278.04	0.84
1288.14	0.672
1298.25	0.512
1308.35	0.619
1318.46	0.681
1328.56	0.782
1338.67	0.859
1348.77	0.886
1358.88	0.898
1368.98	0.928
1379.09	0.955
1389.19	0.957
1399.3	0.959
1409.41	0.957
1419.51	0.958
1429.62	0.959
1439.72	0.959
1449.83	0.957
1459.93	0.96
1470.04	0.959
1480.14	0.963
1490.25	0.964
1500.35	0.965
1510.46	0.965
1520.56	0.965
1530.67	0.965
1540.77	0.967
1550.88	0.967
1560.98	0.964
1571.09	0.963
1581.19	0.958
1591.3	0.91
1601.41	0.9
1611.51	0.949
1621.62	0.962
1631.72	0.965
1641.83	0.965
1651.93	0.963
1662.04	0.964
1672.14	0.959
1682.25	0.957
1692.35	0.962
1702.46	0.963
1712.56	0.96
1722.67	0.96
1732.77	0.964
1742.88	0.963
1752.98	0.966
1763.09	0.964
1773.2	0.962
1783.3	0.958
1793.41	0.952
1803.51	0.954
1813.62	0.959
1823.72	0.964
1833.83	0.965
1843.93	0.966
1854.04	0.968
1864.14	0.967
1874.25	0.967
1884.35	0.968
1894.46	0.968
1904.56	0.966
1914.67	0.965
1924.77	0.963
1934.88	0.959
1944.98	0.962
1955.09	0.964
1965.2	0.966
1975.3	0.967
1985.41	0.968
1995.51	0.968
2005.62	0.969
2015.72	0.969
2025.83	0.969
2035.93	0.968
2046.04	0.968
2056.14	0.967
2066.25	0.968
2076.35	0.967
2086.46	0.969
2096.56	0.969
2106.67	0.968
2116.77	0.966
2126.88	0.962
2136.99	0.959
2147.09	0.9631
2157.2	0.965
2167.3	0.9649
2177.41	0.9635
2187.51	0.959
2197.62	0.9555
2207.72	0.9451
2217.83	0.9166
2227.93	0.869
2238.04	0.7956
2248.14	0.6361
2258.25	0.4462
2268.35	0.6364
2278.46	0.688
2288.56	0.7024
2298.67	0.778
2308.77	0.8528
2318.88	0.8901
2328.99	0.915
2339.09	0.9403
2349.2	0.9486
2359.3	0.95
2369.41	0.951
2379.51	0.952
2389.62	0.953
2399.72	0.952
2409.83	0.95
2419.93	0.9481
2430.04	0.949
2440.14	0.948
2450.25	0.95
2460.35	0.9504
2470.46	0.949
2480.56	0.9515
2490.67	0.954
2500.78	0.955
2510.88	0.954
2520.99	0.953
2531.09	0.9531
2541.2	0.953
2551.3	0.954
2561.41	0.955
2571.51	0.954
2581.62	0.955
2591.72	0.955
2601.83	0.955
2611.93	0.9531
2622.04	0.9496
2632.14	0.9498
2642.25	0.952
2652.35	0.9528
2662.46	0.953
2672.56	0.9523
2682.67	0.952
2692.78	0.95
2702.88	0.949
2712.99	0.948
2723.09	0.946
2733.2	0.947
2743.3	0.947
2753.41	0.9445
2763.51	0.943
2773.62	0.938
2783.72	0.9222
2793.83	0.9204
2803.93	0.928
2814.04	0.9287
2824.14	0.927
2834.25	0.929
2844.35	0.928
2854.46	0.9248
2864.57	0.9193
2874.67	0.917
2884.78	0.917
2894.88	0.9155
2904.99	0.8984
2915.09	0.8815
2925.2	0.8573
2935.3	0.8379
2945.41	0.825
2955.51	0.8161
2965.62	0.8111
2975.72	0.784
2985.83	0.7181
2995.93	0.6506
3006.04	0.3394
3016.14	0.0096
3026.25	0.0241
3036.35	0.0773
3046.46	0.2709
3056.57	0.433
3066.67	0.5564
3076.78	0.6334
3086.88	0.7149
3096.99	0.7729
3107.09	0.8116
3117.2	0.8538
3127.3	0.8721
3137.41	0.8855
3147.51	0.898
3157.62	0.9049
3167.72	0.901
3177.83	0.9035
3187.93	0.9154
3198.04	0.9187
3208.14	0.9236
3218.25	0.924
3228.36	0.922
3238.46	0.921
3248.57	0.922
3258.67	0.9223
3268.78	0.924
3278.88	0.9261
3288.99	0.9264
3299.09	0.9249
3309.2	0.921
3319.3	0.921
3329.41	0.92
3339.51	0.919
3349.62	0.917
3359.72	0.917
3369.83	0.9156
3379.93	0.916
3390.04	0.914
3400.14	0.914
3410.25	0.9153
3420.36	0.916
3430.46	0.9162
3440.57	0.918
3450.67	0.919
3460.78	0.919
3470.88	0.92
3480.99	0.92
3491.09	0.92
3501.2	0.9195
3511.3	0.918
3521.41	0.916
3531.51	0.914
3541.62	0.9055
3551.72	0.8681
3561.83	0.8206
3571.93	0.8596
3582.04	0.882
3592.15	0.8828
3602.25	0.8911
3612.36	0.9105
3622.46	0.917
3632.57	0.916
3642.67	0.9109
3652.78	0.9001
3662.88	0.876
3672.99	0.8382
3683.09	0.8342
3693.2	0.8652
3703.3	0.898
3713.41	0.9169
3723.51	0.9248
3733.62	0.9274
3743.72	0.9309
3753.83	0.931
3763.93	0.93
3774.04	0.93
3784.15	0.931
3794.25	0.934
3804.36	0.9377
3814.46	0.935
3824.57	0.934
3834.67	0.938
3844.78	0.9374
3854.88	0.935
3864.99	0.937
3875.09	0.936
3885.2	0.935
3895.3	0.936
3905.41	0.938
3915.51	0.9351
3925.62	0.936
3935.72	0.935
3945.83	0.9384
3955.94	0.941
3966.04	0.941
3976.15	0.941
3986.25	0.9415
3996.36	0.9457
4006.46	0.9452
