Infrared Spectrum: Pentane, 3-methylene-
Formula: C 6 H 12
CAS: 760-21-4
State: gas
Origin: Sadtler Research Labs Under US-EPA Contract
1/CM	ABSORBANCE
450	0.0492428
462	0.023146
474	0.0109736
486	0.0298777
498	0.0285866
510	0.0110658
522	0.00590176
534	0.0438021
546	0.0322752
558	0.0225005
570	0.0178897
582	0.0268346
594	0.024437
606	0.0238837
618	0.0225005
630	0.0162298
642	0.0159532
654	0.0172442
666	0.0165065
678	0.0180741
690	0.0176131
702	0.0168753
714	0.0173364
726	0.0174286
738	0.0180741
750	0.0213939
762	0.0252669
774	0.0213939
786	0.0287711
798	0.0402057
810	0.0557901
822	0.0512715
834	0.0357794
846	0.0272956
858	0.0310765
870	0.0660259
882	0.134818
894	0.234779
906	0.140536
918	0.0663948
930	0.0311687
942	0.0243448
954	0.024437
966	0.0286789
978	0.0314453
990	0.0360561
1002	0.041589
1014	0.0409435
1026	0.0366094
1038	0.0335663
1050	0.0351339
1062	0.0400213
1074	0.0439866
1086	0.046753
1098	0.044171
1110	0.040759
1122	0.0337507
1134	0.0248058
1146	0.0212094
1158	0.0199184
1170	0.0195496
1182	0.0201951
1194	0.0239759
1206	0.0293244
1218	0.0301543
1230	0.0292322
1242	0.0272956
1254	0.0261891
1266	0.0272956
1278	0.0280334
1290	0.027019
1302	0.0307998
1314	0.0339351
1326	0.0337507
1338	0.032183
1350	0.0350417
1362	0.0505338
1374	0.079766
1386	0.0970102
1398	0.0723888
1410	0.0549601
1422	0.061323
1434	0.0891719
1446	0.136939
1458	0.179358
1470	0.159532
1482	0.0988545
1494	0.049335
1506	0.0333818
1518	0.027019
1530	0.0225005
1542	0.0217627
1554	0.0185352
1566	0.0164143
1578	0.015861
1590	0.0151233
1602	0.0155843
1614	0.0213939
1626	0.0396524
1638	0.0747864
1650	0.0843767
1662	0.0648271
1674	0.0286789
1686	0.0203795
1698	0.0189963
1710	0.0169676
1722	0.0152155
1734	0.0142933
1746	0.0136478
1758	0.0118035
1770	0.0135556
1782	0.0165987
1794	0.0176131
1806	0.0142011
1818	0.00885264
1830	0.0073772
1842	0.00765384
1854	0.00719277
1866	0.00590176
1878	0.00497961
1890	0.00497961
1902	0.00451853
1914	0.00378081
1926	0.0036886
1938	0.00313531
1950	0.00313531
1962	0.00295088
1974	0.00285866
1986	0.00285866
1998	0.00331974
2010	0.00276645
2022	0.00313531
2034	0.00396525
2046	0.00378081
2058	0.00350417
2070	0.00322752
2082	0.00322752
2094	0.00276645
2106	0.0024898
2118	0.00267424
2130	0.0024898
2142	0.00156766
2154	0.00147544
2166	0.00147544
2178	0.00221316
2190	0.00221316
2202	0.00230538
2214	0.00193651
2226	0.00212094
2238	0.00202873
2250	0.00193651
2262	0.00175209
2274	0.00138322
2286	0.00129101
2298	0.00110658
2310	0.000276645
2322	0
2334	0
2346	0
2358	0
2370	9.2215e-05
2382	0.00212094
2394	0.0024898
2406	0.00212094
2418	0.00221316
2430	0.00165987
2442	0.00147544
2454	0.00156766
2466	0.00138322
2478	0.00119879
2490	0.000645505
2502	0.00092215
2514	0.00110658
2526	0.00092215
2538	0.000461075
2550	0.00110658
2562	0.00212094
2574	0.00212094
2586	0.00239759
2598	0.00156766
2610	0.0018443
2622	0.0030431
2634	0.00350417
2646	0.0030431
2658	0.00359638
2670	0.00507182
2682	0.00544068
2694	0.00654727
2706	0.00839157
2718	0.0109736
2730	0.0156766
2742	0.0192729
2754	0.018443
2766	0.017152
2778	0.0183508
2790	0.0206562
2802	0.0255436
2814	0.0351339
2826	0.054038
2838	0.0900018
2850	0.145976
2862	0.235978
2874	0.339075
2886	0.425664
2898	0.448626
2910	0.42963
2922	0.489293
2934	0.579571
2946	0.598291
2958	0.645966
2970	0.869403
2982	0.846257
2994	0.44586
3006	0.228601
3018	0.151601
3030	0.118773
3042	0.0933216
3054	0.0727576
3066	0.0799504
3078	0.106508
3090	0.104664
3102	0.0620607
3114	0.0251747
3126	0.0147544
3138	0.0136478
3150	0.013279
3162	0.0129101
3174	0.0138322
3186	0.0112502
3198	0.0100514
3210	0.00719277
3222	0.00580955
3234	0.00497961
3246	0.00396525
3258	0.00442632
3270	0.00396525
3282	0.00331974
3294	0.0036886
3306	0.00507182
3318	0.00442632
3330	0.00451853
3342	0.00580955
3354	0.00405746
3366	0.0048874
3378	0.00470296
3390	0.00414968
3402	0.00442632
3414	0.0048874
3426	0.0036886
3438	0.00414968
3450	0.00396525
3462	0.00258202
3474	0.00073772
3486	0.00267424
3498	0.000829935
3510	0.00396525
3522	0.00359638
3534	0.00313531
3546	0.00267424
3558	0.00129101
3570	0.00267424
3582	0.00193651
3594	0.00396525
3606	0.00230538
3618	0.00119879
3630	0.00313531
3642	0.00359638
3654	0.0024898
3666	0.00387303
3678	0.00212094
3690	0.0036886
3702	0.00424189
3714	0.00230538
3726	0.0024898
3738	0.00350417
3750	0.0043341
3762	0.00424189
3774	0.00147544
3786	0.00396525
3798	0.00479518
3810	0.00442632
3822	0.0024898
3834	0.00507182
3846	0.00405746
3858	0.00276645
3870	0.00322752
3882	0.00036886
3894	0.00147544
3906	0
3918	0.00129101
3930	0.0030431
3942	0.0030431
3954	0.00562511
3966	0.00331974
