Infrared Spectrum: CYCLOPROPANECARBONITRILE
Formula: C4 H5 N
CAS: 5500-21-0
State: LIQUID (NEAT)
Class: COBLENTZ III
Instrument: PERKIN-ELMER 521 (GRATING)
Instrument parameters: GRATING CHANGES AT 2000, 630 CM^-^1
Sampling: TRANSMISSION
Path length: SMEAR
Resolution: 4
Origin: STANDARD OIL OF OHIO
1/CM	TRANSMITTANCE
562.619	0.355
571.158	0.408
579.697	0.449
588.236	0.492
596.775	0.537
605.314	0.583
613.852	0.626
622.391	0.659
630.93	0.69
639.469	0.719
648.008	0.762
656.547	0.782
665.086	0.801
673.625	0.822
682.164	0.836
690.703	0.836
699.241	0.839
707.78	0.832
716.319	0.8
724.858	0.678
733.397	0.355
741.936	0.3069
750.475	0.418
759.014	0.5648
767.553	0.763
776.092	0.786
784.631	0.77
793.169	0.698
801.708	0.494
810.247	0.299
818.786	0.138
827.325	0.1719
835.864	0.5389
844.403	0.736
852.942	0.8
861.481	0.817
870.02	0.819
878.559	0.823
887.097	0.832
895.636	0.817
904.175	0.796
912.714	0.742
921.253	0.5701
929.792	0.1082
938.331	0.034
946.87	0.4779
955.409	0.708
963.948	0.773
972.486	0.812
981.025	0.838
989.564	0.839
998.103	0.836
1006.64	0.825
1015.18	0.778
1023.72	0.658
1032.26	0.4071
1040.8	0.121
1049.34	0.183
1057.88	0.262
1066.41	0.096
1074.95	0.203
1083.49	0.405
1092.03	0.433
1100.57	0.6039
1109.11	0.66
1117.65	0.573
1126.19	0.607
1134.73	0.77
1143.26	0.809
1151.8	0.81
1160.34	0.806
1168.88	0.78
1177.42	0.665
1185.96	0.67
1194.5	0.6219
1203.04	0.829
1211.58	0.864
1220.11	0.875
1228.65	0.88
1237.19	0.881
1245.73	0.88
1254.27	0.874
1262.81	0.868
1271.35	0.868
1279.89	0.867
1288.43	0.88
1296.96	0.881
1305.5	0.879
1314.04	0.873
1322.58	0.867
1331.12	0.836
1339.66	0.7281
1348.2	0.7429
1356.74	0.842
1365.28	0.866
1373.82	0.867
1382.35	0.865
1390.89	0.853
1399.43	0.838
1407.97	0.813
1416.51	0.745
1425.05	0.5592
1433.59	0.2599
1442.13	0.637
1450.67	0.6091
1459.2	0.529
1467.74	0.783
1476.28	0.843
1484.82	0.872
1493.36	0.886
1501.9	0.9
1510.44	0.908
1518.98	0.917
1527.52	0.918
1536.05	0.92
1544.59	0.914
1553.13	0.91
1561.67	0.899
1570.21	0.903
1578.75	0.908
1587.29	0.911
1595.83	0.911
1604.37	0.904
1612.9	0.893
1621.44	0.887
1629.98	0.884
1638.52	0.885
1647.06	0.899
1655.6	0.912
1664.14	0.916
1672.68	0.912
1681.22	0.905
1689.75	0.89
1698.29	0.894
1706.83	0.905
1715.37	0.907
1723.91	0.901
1732.45	0.908
1740.99	0.904
1749.53	0.908
1758.07	0.916
1766.6	0.921
1775.14	0.91
1783.68	0.899
1792.22	0.898
1800.76	0.891
1809.3	0.872
1817.84	0.894
1826.38	0.916
1834.92	0.916
1843.45	0.905
1851.99	0.881
1860.53	0.828
1869.07	0.84
1877.61	0.881
1886.15	0.881
1894.69	0.878
1903.23	0.862
1911.77	0.859
1920.31	0.881
1928.84	0.904
1937.38	0.901
1945.92	0.894
1954.46	0.882
1963	0.864
1971.54	0.838
1980.08	0.862
1988.62	0.903
1997.16	0.899
2005.69	0.916
2014.23	0.9364
2022.77	0.946
2031.31	0.949
2039.85	0.945
2048.39	0.9395
2056.93	0.936
2065.47	0.931
2074.01	0.9182
2082.54	0.9026
2091.08	0.8812
2099.62	0.8525
2108.16	0.856
2116.7	0.8609
2125.24	0.864
2133.78	0.866
2142.32	0.8622
2150.86	0.853
2159.39	0.8579
2167.93	0.8586
2176.47	0.8454
2185.01	0.7804
2193.55	0.8409
2202.09	0.8073
2210.63	0.7066
2219.17	0.5491
2227.71	0.0308
2236.24	0.0224
2244.78	0.0936
2253.32	0.4696
2261.86	0.6022
2270.4	0.491
2278.94	0.4327
2287.48	0.7652
2296.02	0.8511
2304.56	0.8824
2313.09	0.9187
2321.63	0.9546
2330.17	0.9589
2338.71	0.959
2347.25	0.9571
2355.79	0.953
2364.33	0.9501
2372.87	0.9459
2381.41	0.938
2389.94	0.9424
2398.48	0.9589
2407.02	0.962
2415.56	0.962
2424.1	0.96
2432.64	0.9571
2441.18	0.9472
2449.72	0.9252
2458.26	0.9043
2466.8	0.915
2475.33	0.938
2483.87	0.9362
2492.41	0.9207
2500.95	0.9422
2509.49	0.95
2518.03	0.9498
2526.57	0.9576
2535.11	0.9616
2543.65	0.963
2552.18	0.963
2560.72	0.96
2569.26	0.9459
2577.8	0.9376
2586.34	0.9562
2594.88	0.9564
2603.42	0.9402
2611.96	0.9475
2620.5	0.9598
2629.03	0.968
2637.57	0.969
2646.11	0.969
2654.65	0.9664
2663.19	0.963
2671.73	0.9524
2680.27	0.9453
2688.81	0.9525
2697.35	0.963
2705.88	0.969
2714.42	0.97
2722.96	0.97
2731.5	0.9675
2740.04	0.9635
2748.58	0.9523
2757.12	0.942
2765.66	0.943
2774.2	0.9437
2782.73	0.9562
2791.27	0.9553
2799.81	0.9535
2808.35	0.9567
2816.89	0.957
2825.43	0.953
2833.97	0.951
2842.51	0.9411
2851.05	0.9256
2859.58	0.9094
2868.12	0.8848
2876.66	0.8935
2885.2	0.917
2893.74	0.9123
2902.28	0.8998
2910.82	0.897
2919.36	0.8894
2927.9	0.8813
2936.43	0.8778
2944.97	0.8716
2953.51	0.8543
2962.05	0.8313
2970.59	0.8033
2979.13	0.7756
2987.67	0.7388
2996.21	0.675
3004.75	0.604
3013.29	0.4403
3021.82	0.3032
3030.36	0.4374
3038.9	0.498
3047.44	0.4222
3055.98	0.3534
3064.52	0.5174
3073.06	0.6128
3081.6	0.637
3090.14	0.632
3098.67	0.6359
3107.21	0.6536
3115.75	0.7136
3124.29	0.7475
3132.83	0.7707
3141.37	0.788
3149.91	0.7749
3158.45	0.7229
3166.99	0.6394
3175.52	0.741
3184.06	0.8316
3192.6	0.8521
3201.14	0.8602
3209.68	0.8746
3218.22	0.9002
3226.76	0.9143
3235.3	0.919
3243.84	0.92
3252.37	0.9204
3260.91	0.9179
3269.45	0.9114
3277.99	0.9081
3286.53	0.9233
3295.07	0.9341
3303.61	0.937
3312.15	0.936
3320.69	0.934
3329.22	0.934
3337.76	0.9324
3346.3	0.9238
3354.84	0.9075
3363.38	0.9202
3371.92	0.9452
3380.46	0.957
3389	0.958
3397.54	0.959
3406.07	0.96
3414.61	0.9549
3423.15	0.9505
3431.69	0.9551
3440.23	0.965
3448.77	0.966
3457.31	0.966
3465.85	0.965
3474.39	0.964
3482.92	0.962
3491.46	0.959
3500	0.957
3508.54	0.9485
3517.08	0.94
3525.62	0.937
3534.16	0.936
3542.7	0.933
3551.24	0.931
3559.77	0.9255
3568.31	0.8922
3576.85	0.869
3585.39	0.8987
3593.93	0.927
3602.47	0.93
3611.01	0.9315
3619.55	0.9359
3628.09	0.936
3636.63	0.937
3645.16	0.9499
3653.7	0.953
3662.24	0.9564
3670.78	0.96
3679.32	0.96
3687.86	0.9531
3696.4	0.952
3704.94	0.9718
3713.48	0.9784
3722.01	0.979
3730.55	0.981
3739.09	0.9781
3747.63	0.9766
3756.17	0.9732
3764.71	0.9726
3773.25	0.971
3781.79	0.9696
3790.33	0.969
3798.86	0.9686
3807.4	0.9651
3815.94	0.9612
3824.48	0.9561
3833.02	0.9506
3841.56	0.945
3850.1	0.9478
3858.64	0.9519
3867.18	0.952
3875.71	0.952
3884.25	0.95
3892.79	0.944
3901.33	0.942
