Infrared Spectrum: Cyclopropanecarboxamide
Formula: C 4 H 7 N O
CAS: 6228-73-5
State: gas
Origin: EPA-IR VAPOR PHASE LIBRARY
1/CM	ABSORBANCE
549.8	0.0046914
559.445	0.0040614
569.09	0.0038414
578.734	0.0051714
588.379	0.0073414
598.024	0.0082914
607.669	0.0079214
617.313	0.0067914
626.958	0.0041314
636.603	0.0028314
646.248	0.0021114
655.893	0.0019714
665.537	0.0017914
675.182	0.0019714
684.827	0.0025414
694.472	0.0033114
704.116	0.0046914
713.761	0.0062014
723.406	0.0077514
733.051	0.0088114
742.695	0.0098214
752.34	0.0093914
761.985	0.0095114
771.63	0.0087114
781.275	0.0079614
790.919	0.0075214
800.564	0.0068514
810.209	0.0069514
819.854	0.0073814
829.498	0.0072114
839.143	0.0063714
848.788	0.0057914
858.433	0.0053014
868.078	0.0049014
877.722	0.0046914
887.367	0.0048914
897.012	0.0066014
906.657	0.0115214
916.301	0.0154714
925.946	0.0162014
935.591	0.0128414
945.236	0.0070714
954.88	0.0039714
964.525	0.0031214
974.17	0.0028614
983.815	0.0031114
993.46	0.0033814
1003.1	0.0038114
1012.75	0.0043314
1022.39	0.0053314
1032.04	0.0059814
1041.68	0.0074314
1051.33	0.0080814
1060.97	0.0076414
1070.62	0.0075414
1080.26	0.0051914
1089.91	0.0052714
1099.55	0.0059714
1109.2	0.0055914
1118.84	0.0046414
1128.49	0.0027514
1138.13	0.0018814
1147.78	0.0021314
1157.42	0.0017414
1167.07	0.0022514
1176.71	0.0023014
1186.36	0.0032614
1196	0.0049714
1205.64	0.0075514
1215.29	0.0116014
1224.93	0.0189114
1234.58	0.0267814
1244.22	0.0295014
1253.87	0.0286614
1263.51	0.0232114
1273.16	0.0175814
1282.8	0.0139514
1292.45	0.0107814
1302.09	0.0074014
1311.74	0.0048714
1321.38	0.0043814
1331.03	0.0044114
1340.67	0.0046814
1350.32	0.0052214
1359.96	0.0058614
1369.61	0.0073014
1379.25	0.0130714
1388.9	0.0259914
1398.54	0.0376514
1408.18	0.0407114
1417.83	0.0346914
1427.47	0.0193814
1437.12	0.0088614
1446.76	0.0062714
1456.41	0.0053114
1466.05	0.0045714
1475.7	0.0037614
1485.34	0.0032714
1494.99	0.0029514
1504.63	0.0025314
1514.28	0.0023114
1523.92	0.0023114
1533.57	0.0024814
1543.21	0.0028714
1552.86	0.0042014
1562.5	0.0087514
1572.15	0.0211514
1581.79	0.0310614
1591.44	0.0338414
1601.08	0.0306714
1610.73	0.0154214
1620.37	0.0070114
1630.01	0.0047314
1639.66	0.0044714
1649.3	0.0051614
1658.95	0.0060614
1668.59	0.0071614
1678.24	0.0093414
1687.88	0.0147914
1697.53	0.0281214
1707.17	0.0522114
1716.82	0.0793014
1726.46	0.0853814
1736.11	0.0865114
1745.75	0.0582814
1755.4	0.0283414
1765.04	0.0116314
1774.69	0.0055814
1784.33	0.0041214
1793.98	0.0036614
1803.62	0.0030114
1813.27	0.0023814
1822.91	0.0019814
1832.55	0.0017514
1842.2	0.0016014
1851.84	0.0014514
1861.49	0.0012214
1871.13	0.0010201
1880.78	0.0008461
1890.42	0.0007393
1900.07	0.0006965
1909.71	0.0007026
1919.36	0.0006314
1929	0.000724
1938.65	0.0007392
1948.29	0.0008198
1957.94	0.0008324
1967.58	0.0008896
1977.23	0.0008388
1986.87	0.0008704
1996.52	0.0007024
2006.16	0.0005812
2015.81	0.0005077
2025.45	0.0004107
2035.1	0.0003799
2044.74	0.0003657
2054.38	0.0004328
2064.03	0.0005564
2073.67	0.0005848
2083.32	0.0006731
2092.96	0.0008374
2102.61	0.0008231
2112.25	0.0007339
2121.9	0.0006999
2131.54	0.0007093
2141.19	0.0006499
2150.83	0.000682
2160.48	0.0007281
2170.12	0.0005717
2179.77	0.0005142
2189.41	0.0004841
2199.06	0.0004544
2208.7	0.0004217
2218.35	0.0003724
2227.99	0.0003789
2237.64	0.0002942
2247.28	0.000411
2256.92	0.000368
2266.57	0.0003861
2276.21	0.0003775
2285.86	0.0003639
2295.5	0.000441
2305.15	0.0004371
2314.79	0.0006401
2324.44	0.0006011
2334.08	0.0006619
2343.73	0.00058
2353.37	0.000502
2363.02	0.0003714
2372.66	0.0003155
2382.31	0.0003261
2391.95	0.0003152
2401.6	0.0001887
2411.24	0.000227
2420.89	0.0002871
2430.53	0.0003028
2440.18	0.0003534
2449.82	0.0003373
2459.47	0.0003872
2469.11	0.0003301
2478.75	0.0004584
2488.4	0.0003809
2498.04	0.0004468
2507.69	0.0003856
2517.33	0.0003488
2526.98	0.000294
2536.62	0.0002261
2546.27	0.0002228
2555.91	0.00015929
2565.56	0.00016819
2575.2	0.0001839
2584.85	0.0001795
2594.49	0.0002759
2604.14	0.0002445
2613.78	0.0003344
2623.43	0.0003652
2633.07	0.0003005
2642.72	0.0002981
2652.36	0.0004465
2662.01	0.0003163
2671.65	0.0002802
2681.29	0.0002037
2690.94	0.00014743
2700.58	0.0001959
2710.23	0.0002382
2719.87	0.00010193
2729.52	0.0002712
2739.16	0.0001769
2748.81	8.624e-05
2758.45	0.00011289
2768.1	0.0002223
2777.74	0.0004129
2787.39	0.0003006
2797.03	0.0004529
2806.68	0.0003272
2816.32	0.0005498
2825.97	0.0005869
2835.61	0.0006419
2845.26	0.0006427
2854.9	0.0004811
2864.55	0.0005677
2874.19	0.0004969
2883.84	0.0004186
2893.48	0.0004494
2903.12	0.0004383
2912.77	0.0003989
2922.41	0.0003425
2932.06	0.0004418
2941.7	0.0003274
2951.35	0.0004853
2960.99	0.0006743
2970.64	0.0007614
2980.28	0.0011614
2989.93	0.0021314
2999.57	0.0041614
3009.22	0.0078914
3018.86	0.0107714
3028.51	0.0113614
3038.15	0.0095114
3047.8	0.0065714
3057.44	0.0038714
3067.09	0.0023114
3076.73	0.0021014
3086.38	0.0027114
3096.02	0.0032314
3105.67	0.0032314
3115.31	0.0027914
3124.95	0.0014514
3134.6	0.000734
3144.24	0.0006931
3153.89	0.000566
3163.53	0.0005937
3173.18	0.000559
3182.82	0.0005845
3192.47	0.0005728
3202.11	0.0003914
3211.76	0.0001809
3221.4	0.0003511
3231.05	0.0002482
3240.69	5.81e-05
3250.34	0.0002928
3259.98	0.00017023
3269.63	0.00014364
3279.27	0.0002719
3288.92	0.00013067
3298.56	0.0003407
3308.21	0.0005205
3317.85	0.0004527
3327.49	0.0005219
3337.14	0.0004381
3346.78	0.0004281
3356.43	0.0004517
3366.07	0.0006641
3375.72	0.0008645
3385.36	0.0013714
3395.01	0.0024114
3404.65	0.0040014
3414.3	0.0060914
3423.94	0.0081014
3433.59	0.0095014
3443.23	0.0084114
3452.88	0.0063914
3462.52	0.0035514
3472.17	0.0018514
3481.81	0.0016114
3491.46	0.0019514
3501.1	0.0024414
3510.75	0.0032814
3520.39	0.0044514
3530.04	0.0049714
3539.68	0.0060614
3549.32	0.0069514
3558.97	0.0067114
3568.61	0.0059114
3578.26	0.0040014
3587.9	0.0018114
3597.55	0.0009461
3607.19	0.0004211
3616.84	0.000173
3626.48	0.0002963
3636.13	0.0002863
3645.77	0.0002577
3655.42	0.0001824
3665.06	0.00012147
3674.71	0.00010577
3684.35	0.0001891
3694	0.0001946
3703.64	0.00014413
3713.29	0.000233
3722.93	0.0001236
3732.58	0.0001715
3742.22	0.0002847
3751.86	0.00013211
3761.51	0.0001986
3771.15	0.00012916
3780.8	0.000225
3790.44	0.0002782
3800.09	0.00012041
3809.73	1.89e-05
3819.38	6.467e-05
3829.02	0.0003682
3838.67	0.000194
3848.31	0.0001856
3857.96	0.0003191
3867.6	0.0002345
3877.25	0.000288
3886.89	0.0002017
3896.54	4.95e-05
3906.18	0.00013907
3915.83	0.0003238
3925.47	0.0003033
3935.12	0.0002569
3944.76	0.0002261
3954.41	0.0001894
3964.05	0.0002047
3973.69	0.0002491
3983.34	0.0002786
3992.98	0.00010022
