Infrared Spectrum: Propane, 1,3-diiodo-
Formula: C 3 H 6 I 2
CAS: 627-31-6
State: gas
Origin: Sadtler Research Labs Under US-EPA Contract
1/CM	ABSORBANCE
450	0.028853
462	0.014312
474	0.00938867
486	0.0107626
498	0.0511797
510	0.0384707
522	0.0320589
534	0.0325169
546	0.00824371
558	0.00755674
570	0.00709875
582	0.0106481
594	0.0266776
606	0.058393
618	0.00938867
630	0
642	0.00641178
654	0.0107626
666	0.00790022
678	0.00915968
690	0.014083
702	0.0214108
714	0.0282805
726	0.0413331
738	0.198307
750	0.0795747
762	0.0228992
774	0.0278225
786	0.0352648
798	0.0589654
810	0.0318299
822	0.0398446
834	0.0270211
846	0.01477
858	0.0124801
870	0.0148845
882	0.0249601
894	0.0220977
906	0.0388141
918	0.0921693
930	0.0220977
942	0.0175179
954	0.0168309
966	0.014541
978	0.0111061
990	0.00973216
1002	0.0106481
1014	0.0130525
1026	0.0141975
1038	0.0195788
1050	0.0199223
1062	0.0172889
1074	0.028624
1086	0.0404171
1098	0.0259906
1110	0.0171744
1122	0.0193498
1134	0.0304559
1146	0.0471724
1158	0.106252
1170	0.0740789
1182	0.158119
1194	0.853682
1206	1.12424
1218	0.211818
1230	0.103962
1242	0.0527827
1254	0.0444244
1266	0.0832386
1278	0.175293
1290	0.182736
1302	0.0683541
1314	0.0491188
1326	0.0326314
1338	0.0515232
1350	0.127778
1362	0.0222122
1374	0.015457
1386	0.014083
1398	0.0188918
1410	0.0401881
1422	0.131098
1434	0.234946
1446	0.0984666
1458	0.0400736
1470	0.0207238
1482	0.0132815
1494	0.00824371
1506	0.00675526
1518	0.00652627
1530	0.00675526
1542	0.00664077
1554	0.0058393
1566	0.00595379
1578	0.00492333
1590	0.00526682
1602	0.0058393
1614	0.00526682
1626	0.00629728
1638	0.0058393
1650	0.00606829
1662	0.00457984
1674	0.00469434
1686	0.00480883
1698	0.00469434
1710	0.00457984
1722	0.00412186
1734	0.00457984
1746	0.00400736
1758	0.00412186
1770	0.00423635
1782	0.00457984
1794	0.00423635
1806	0.00389286
1818	0.00389286
1830	0.00538131
1842	0.0057248
1854	0.00377837
1866	0.0029769
1878	0.00309139
1890	0.00240442
1902	0.00217542
1914	0.00309139
1926	0.0028624
1938	0.00366387
1950	0.00480883
1962	0.00377837
1974	0.00366387
1986	0.00400736
1998	0.0056103
2010	0.00675526
2022	0.00938867
2034	0.00961766
2046	0.00755674
2058	0.00709875
2070	0.0087017
2082	0.00435085
2094	0.00217542
2106	0.00400736
2118	0.00641178
2130	0.00778573
2142	0.00606829
2154	0.0058393
2166	0.00652627
2178	0.00606829
2190	0.00538131
2202	0.0056103
2214	0.00526682
2226	0.00526682
2238	0.0056103
2250	0.00629728
2262	0.00526682
2274	0.00618278
2286	0.00709875
2298	0.0084727
2310	0.00618278
2322	0.000114496
2334	0.00332038
2346	0.0139685
2358	0.000114496
2370	0.0278225
2382	0.0215252
2394	0.0105336
2406	0.00961766
2418	0.00904518
2430	0.00801472
2442	0.00721325
2454	0.00686976
2466	0.00801472
2478	0.00893069
2490	0.0085872
2502	0.00824371
2514	0.00790022
2526	0.00904518
2538	0.00938867
2550	0.00812922
2562	0.00824371
2574	0.00915968
2586	0.00904518
2598	0.00950317
2610	0.0100756
2622	0.00973216
2634	0.0113351
2646	0.00996115
2658	0.00503782
2670	0.0058393
2682	0.0101901
2694	0.00961766
2706	0.00904518
2718	0.00984666
2730	0.00996115
2742	0.0100756
2754	0.0112206
2766	0.0123656
2778	0.014541
2790	0.0117931
2802	0.0119076
2814	0.013854
2826	0.0226702
2838	0.0317154
2850	0.0376692
2862	0.0383562
2874	0.0298835
2886	0.0302269
2898	0.055874
2910	0.0921693
2922	0.107626
2934	0.0512942
2946	0.0413331
2958	0.0770558
2970	0.145295
2982	0.13064
2994	0.0628583
3006	0.0396156
3018	0.0556451
3030	0.04431
3042	0.0191208
3054	0.0114496
3066	0.0106481
3078	0.00950317
3090	0.00950317
3102	0.0087017
3114	0.00675526
3126	0.00835821
3138	0.00675526
3150	0.00790022
3162	0.00618278
3174	0.00675526
3186	0.00732774
3198	0.00812922
3210	0.00675526
3222	0.00480883
3234	0.0057248
3246	0.00835821
3258	0.00652627
3270	0.00400736
3282	0.00309139
3294	0.00618278
3306	0.00629728
3318	0.00549581
3330	0.00503782
3342	0.00480883
3354	0.00457984
3366	0.00526682
3378	0.0058393
3390	0.0029769
3402	0.00618278
3414	0.0058393
3426	0.00354938
3438	0.00412186
3450	0.00457984
3462	0.00171744
3474	0.00377837
3486	0.00206093
3498	0.00400736
3510	0.00217542
3522	0.00228992
3534	0.00251891
3546	0.00389286
3558	0.00251891
3570	0.00343488
3582	0.000114496
3594	0.00217542
3606	0.00309139
3618	0.000801472
3630	0.00137395
3642	0.00515232
3654	0.0027479
3666	0.00206093
3678	0.0028624
3690	0.00389286
3702	0.0029769
3714	0.00480883
3726	0.00206093
3738	0.0084727
3750	0.00721325
3762	0.00629728
3774	0.00595379
3786	0.00595379
3798	0.00549581
3810	0.00755674
3822	0.00618278
3834	0.00503782
3846	0.00606829
3858	0.00835821
3870	0.00492333
3882	0.0057248
3894	0.00629728
3906	0.00686976
3918	0.0027479
3930	0.00183194
3942	0.00549581
3954	0.0028624
3966	0.00423635
