Infrared Spectrum: 1,3-DIIODOPROPANE
Formula: C3 H6 I2
CAS: 627-31-6
State: LIQUID
Class: COBLENTZ
Instrument: Not specified, most likely a prism, grating, or hybrid spectrometer.
Sampling: TRANSMISSION
Path length: 0.003 CM
Resolution: 4
Origin: WYANDOTTE CHEMICALS CORP., WYANDOTTE, MICHIGAN, USA
MICROMETERS	TRANSMITTANCE
2.014	0.988
2.05476	0.986
2.09551	0.988
2.13627	0.986
2.17702	0.95
2.21778	0.932
2.25854	0.937
2.29929	0.923
2.34005	0.93
2.38081	0.935
2.42156	0.939
2.46232	0.944
2.50307	0.94
2.54383	0.945
2.58459	0.944
2.62534	0.947
2.6661	0.947
2.70686	0.939
2.74761	0.945
2.78837	0.939
2.82912	0.934
2.86988	0.928
2.91064	0.922
2.95139	0.917
2.99215	0.912
3.03291	0.91
3.07366	0.908
3.11442	0.9
3.15517	0.886
3.19593	0.879
3.23669	0.869
3.27744	0.844
3.3182	0.739
3.35896	0.739
3.39971	0.499
3.44047	0.678
3.48122	0.632
3.52198	0.778
3.56274	0.754
3.60349	0.866
3.64425	0.879
3.68501	0.896
3.72576	0.898
3.76652	0.9
3.80727	0.89
3.84803	0.878
3.88879	0.9
3.92954	0.906
3.9703	0.908
4.01106	0.901
4.05181	0.906
4.09257	0.9
4.13332	0.9
4.17408	0.898
4.21484	0.879
4.25559	0.876
4.29635	0.895
4.3371	0.9
4.37786	0.896
4.41862	0.871
4.45937	0.869
4.50013	0.891
4.54089	0.888
4.58164	0.886
4.6224	0.879
4.66315	0.881
4.70391	0.876
4.74467	0.868
4.78542	0.868
4.82618	0.891
4.86694	0.91
4.90769	0.898
4.94845	0.906
4.9892	0.895
5.02996	0.876
5.07072	0.879
5.11147	0.884
5.15223	0.888
5.19299	0.878
5.23374	0.876
5.2745	0.89
5.31525	0.898
5.35601	0.898
5.39677	0.895
5.43752	0.884
5.47828	0.869
5.51904	0.871
5.55979	0.881
5.60055	0.888
5.6413	0.883
5.68206	0.871
5.72282	0.878
5.76357	0.869
5.80433	0.868
5.84509	0.866
5.88584	0.866
5.9266	0.864
5.96735	0.822
6.00811	0.632
6.04887	0.807
6.08962	0.846
6.13038	0.837
6.17114	0.817
6.21189	0.771
6.25265	0.758
6.2934	0.8
6.33416	0.834
6.37492	0.847
6.41567	0.842
6.45643	0.822
6.49718	0.825
6.53794	0.844
6.5787	0.83
6.61945	0.825
6.66021	0.817
6.70097	0.812
6.74172	0.807
6.78248	0.769
6.82323	0.744
6.86399	0.629
6.90475	0.576
6.9455	0.309
6.98626	0.243
7.02702	0.101
7.06777	0.252
7.10853	0.534
7.14928	0.683
7.19004	0.739
7.2308	0.759
7.27155	0.763
7.31231	0.778
7.35307	0.774
7.39382	0.7
7.43458	0.306
7.47533	0.524
7.51609	0.598
7.55685	0.7
7.5976	0.592
7.63836	0.568
7.67912	0.7
7.71987	0.693
7.76063	0.578
7.80138	0.231
7.84214	0.077
7.8829	0.358
7.92365	0.587
7.96441	0.648
8.00517	0.656
8.04592	0.656
8.08668	0.639
8.12743	0.6
8.16819	0.538
8.20895	0.355
8.2497	0.138
8.29046	0.06
8.33121	0.037
8.37197	0.027
8.41273	0.027
8.45348	0.054
8.49424	0.336
8.535	0.507
8.57575	0.58
8.61651	0.526
8.65726	0.306
8.69802	0.431
8.73878	0.497
8.77953	0.558
8.82029	0.664
8.86105	0.714
8.9018	0.736
8.94256	0.739
8.98331	0.737
9.02407	0.724
9.06483	0.678
9.10558	0.661
9.14634	0.668
9.1871	0.648
9.22785	0.639
9.26861	0.619
9.30936	0.578
9.35012	0.68
9.39088	0.747
9.43163	0.766
9.47239	0.763
9.51315	0.751
9.5539	0.708
9.59466	0.67
9.63541	0.707
9.67617	0.756
9.71693	0.768
9.75768	0.771
9.79844	0.769
9.8392	0.768
9.87995	0.791
9.92071	0.808
9.96146	0.813
10.0022	0.818
10.043	0.82
10.0837	0.822
10.1245	0.829
10.1652	0.83
10.206	0.829
10.2468	0.827
10.2875	0.824
10.3283	0.81
10.369	0.783
10.4098	0.746
10.4505	0.763
10.4913	0.788
10.5321	0.805
10.5728	0.81
10.6136	0.798
10.6543	0.766
10.6951	0.756
10.7358	0.761
10.7766	0.746
10.8173	0.7
10.8581	0.631
10.8989	0.529
10.9396	0.438
10.9804	0.456
11.0211	0.519
11.0619	0.597
11.1026	0.648
11.1434	0.688
11.1842	0.724
11.2249	0.739
11.2657	0.756
11.3064	0.763
11.3472	0.764
11.3879	0.766
11.4287	0.773
11.4694	0.778
11.5102	0.786
11.551	0.796
11.5917	0.798
11.6325	0.8
11.6732	0.803
11.714	0.805
11.7547	0.803
11.7955	0.798
11.8363	0.781
11.877	0.778
11.9178	0.768
11.9585	0.768
11.9993	0.759
12.04	0.72
12.0808	0.644
12.1215	0.468
12.1623	0.399
12.2031	0.475
12.2438	0.593
12.2846	0.664
12.3253	0.697
12.3661	0.71
12.4068	0.708
12.4476	0.686
12.4883	0.646
12.5291	0.571
12.5699	0.5
12.6106	0.46
12.6514	0.495
12.6921	0.578
12.7329	0.654
12.7736	0.695
12.8144	0.722
12.8552	0.729
12.8959	0.732
12.9367	0.732
12.9774	0.73
13.0182	0.712
13.0589	0.7
13.0997	0.68
13.1404	0.67
13.1812	0.663
13.222	0.658
13.2627	0.641
13.3035	0.612
13.3442	0.58
13.385	0.538
13.4257	0.478
13.4665	0.417
13.5073	0.346
13.548	0.291
13.5888	0.252
13.6295	0.209
13.6703	0.197
13.711	0.203
13.7518	0.236
13.7925	0.296
13.8333	0.367
13.8741	0.433
13.9148	0.482
13.9556	0.507
13.9963	0.544
14.0371	0.587
14.0778	0.624
14.1186	0.666
14.1594	0.693
14.2001	0.715
14.2409	0.736
14.2816	0.744
14.3224	0.754
14.3631	0.759
14.4039	0.763
14.4446	0.771
14.4854	0.773
14.5262	0.776
14.5669	0.776
14.6077	0.78
14.6484	0.78
14.6892	0.781
14.7299	0.78
14.7707	0.776
14.8115	0.778
14.8522	0.778
14.893	0.781
14.9337	0.778
14.9745	0.766
15.0152	0.749
15.056	0.749
15.0967	0.756
15.1375	0.769
15.1783	0.766
15.219	0.764
15.2598	0.766
15.3005	0.761
15.3413	0.756
15.382	0.756
15.4228	0.752
15.4636	0.749
15.5043	0.747
15.5451	0.746
15.5858	0.742
15.6266	0.742
15.6673	0.739
15.7081	0.737
15.7488	0.734
15.7896	0.73
15.8304	0.729
15.8711	0.725
15.9119	0.724
15.9526	0.722
