Infrared Spectrum: Methallylamine
Formula: C 4 H 9 N
CAS: 2878-14-0
State: gas
Origin: EPA-IR VAPOR PHASE LIBRARY
1/CM	ABSORBANCE
549.8	0.02124
559.445	0.0185
569.09	0.01627
578.734	0.01443
588.379	0.01342
598.024	0.01333
607.669	0.01356
617.313	0.01441
626.958	0.01539
636.603	0.01682
646.248	0.01855
655.893	0.02079
665.537	0.02325
675.182	0.02704
684.827	0.03099
694.472	0.03633
704.116	0.04308
713.761	0.05256
723.406	0.06747
733.051	0.08831
742.695	0.10265
752.34	0.1086
761.985	0.09845
771.63	0.07725
781.275	0.05755
790.919	0.04819
800.564	0.04594
810.209	0.04786
819.854	0.05169
829.498	0.05331
839.143	0.05268
848.788	0.05241
858.433	0.05292
868.078	0.06031
877.722	0.07573
887.367	0.08805
897.012	0.1259
906.657	0.07703
916.301	0.06168
925.946	0.04139
935.591	0.02533
945.236	0.01973
954.88	0.01856
964.525	0.0184
974.17	0.01776
983.815	0.01705
993.46	0.01658
1003.1	0.01663
1012.75	0.01796
1022.39	0.02233
1032.04	0.02921
1041.68	0.03396
1051.33	0.03525
1060.97	0.03407
1070.62	0.02714
1080.26	0.02155
1089.91	0.0172
1099.55	0.01302
1109.2	0.01019
1118.84	0.00812
1128.49	0.00677
1138.13	0.00625
1147.78	0.00625
1157.42	0.00586
1167.07	0.00578
1176.71	0.00525
1186.36	0.00465
1196	0.00485
1205.64	0.005
1215.29	0.00651
1224.93	0.00783
1234.58	0.0095
1244.22	0.01065
1253.87	0.01119
1263.51	0.01011
1273.16	0.0096
1282.8	0.00964
1292.45	0.01014
1302.09	0.01026
1311.74	0.01037
1321.38	0.01035
1331.03	0.01136
1340.67	0.01352
1350.32	0.017
1359.96	0.02266
1369.61	0.02861
1379.25	0.03177
1388.9	0.03219
1398.54	0.02771
1408.18	0.0235
1417.83	0.02403
1427.47	0.02831
1437.12	0.03401
1446.76	0.03873
1456.41	0.03852
1466.05	0.03459
1475.7	0.02765
1485.34	0.01937
1494.99	0.01321
1504.63	0.01
1514.28	0.00859
1523.92	0.00841
1533.57	0.00874
1543.21	0.00939
1552.86	0.01038
1562.5	0.01189
1572.15	0.01389
1581.79	0.01701
1591.44	0.02186
1601.08	0.02917
1610.73	0.03671
1620.37	0.04243
1630.01	0.04529
1639.66	0.04497
1649.3	0.03957
1658.95	0.03241
1668.59	0.02599
1678.24	0.01557
1687.88	0.00877
1697.53	0.00579
1707.17	0.0044
1716.82	0.0041
1726.46	0.00386
1736.11	0.00367
1745.75	0.00375
1755.4	0.00405
1765.04	0.00489
1774.69	0.00626
1784.33	0.00788
1793.98	0.00882
1803.62	0.00875
1813.27	0.00782
1822.91	0.00572
1832.55	0.00409
1842.2	0.00312
1851.84	0.00266
1861.49	0.00236
1871.13	0.00209
1880.78	0.00183
1890.42	0.00167
1900.07	0.00151
1909.71	0.00133
1919.36	0.00118
1929	0.0011
1938.65	0.0009792
1948.29	0.0008126
1957.94	0.000792
1967.58	0.0008669
1977.23	0.0007485
1986.87	0.0007772
1996.52	0.0006333
2006.16	0.0007594
2015.81	0.0006267
2025.45	0.0006859
2035.1	0.0006706
2044.74	0.0008401
2054.38	0.0008695
2064.03	0.0008926
2073.67	0.000952
2083.32	0.0009523
2092.96	0.00082
2102.61	0.0007254
2112.25	0.0007988
2121.9	0.0006955
2131.54	0.0006081
2141.19	0.0006717
2150.83	0.00065
2160.48	0.0006051
2170.12	0.0005269
2179.77	0.000639
2189.41	0.0006754
2199.06	0.0005517
2208.7	0.0005322
2218.35	0.0005063
2227.99	0.0004065
2237.64	0.0004446
2247.28	0.0004229
2256.92	0.0003886
2266.57	0.000466
2276.21	0.0005104
2285.86	0.0005178
2295.5	0.0005095
2305.15	0.0006466
2314.79	0.0005147
2324.44	0.000577
2334.08	0.0005867
2343.73	0.0005776
2353.37	0.0004379
2363.02	0.0003996
2372.66	0.0004148
2382.31	0.0004819
2391.95	0.0004988
2401.6	0.0004651
2411.24	0.0004374
2420.89	0.000524
2430.53	0.0005611
2440.18	0.0005481
2449.82	0.0006009
2459.47	0.0006009
2469.11	0.0006266
2478.75	0.000689
2488.4	0.0007223
2498.04	0.0007968
2507.69	0.0007582
2517.33	0.0007977
2526.98	0.0007751
2536.62	0.0007934
2546.27	0.0008274
2555.91	0.0007642
2565.56	0.0008933
2575.2	0.0009434
2584.85	0.0009822
2594.49	0.00129
2604.14	0.00137
2613.78	0.00151
2623.43	0.00177
2633.07	0.00187
2642.72	0.00227
2652.36	0.00242
2662.01	0.00289
2671.65	0.00326
2681.29	0.00346
2690.94	0.0038
2700.58	0.00441
2710.23	0.00522
2719.87	0.00632
2729.52	0.00748
2739.16	0.00889
2748.81	0.00978
2758.45	0.01006
2768.1	0.01041
2777.74	0.01092
2787.39	0.01204
2797.03	0.01484
2806.68	0.01921
2816.32	0.02591
2825.97	0.0343
2835.61	0.04533
2845.26	0.05742
2854.9	0.06803
2864.55	0.07585
2874.19	0.07856
2883.84	0.08133
2893.48	0.08679
2903.12	0.09467
2912.77	0.10219
2922.41	0.10485
2932.06	0.09944
2941.7	0.09257
2951.35	0.0775
2960.99	0.07159
2970.64	0.07086
2980.28	0.069
2989.93	0.06054
2999.57	0.04781
3009.22	0.03216
3018.86	0.02223
3028.51	0.01712
3038.15	0.01541
3047.8	0.01716
3057.44	0.02506
3067.09	0.03846
3076.73	0.04312
3086.38	0.04268
3096.02	0.0363
3105.67	0.01977
3115.31	0.00934
3124.95	0.00459
3134.6	0.00313
3144.24	0.00209
3153.89	0.00175
3163.53	0.0015
3173.18	0.00144
3182.82	0.00116
3192.47	0.00135
3202.11	0.0011
3211.76	0.00105
3221.4	0.00108
3231.05	0.0008176
3240.69	0.00102
3250.34	0.0009432
3259.98	0.0008398
3269.63	0.0009096
3279.27	0.00109
3288.92	0.0009194
3298.56	0.0009335
3308.21	0.00103
3317.85	0.00118
3327.49	0.00181
3337.14	0.00213
3346.78	0.00278
3356.43	0.00283
3366.07	0.00239
3375.72	0.00171
3385.36	0.00134
3395.01	0.00153
3404.65	0.00157
3414.3	0.00199
3423.94	0.00206
3433.59	0.00163
3443.23	0.00121
3452.88	0.0009837
3462.52	0.0007139
3472.17	0.0004879
3481.81	0.000614
3491.46	0.0006373
3501.1	0.0008118
3510.75	0.0007903
3520.39	0.0007258
3530.04	0.0006518
3539.68	0.0006777
3549.32	0.0007274
3558.97	0.0005557
3568.61	0.0006056
3578.26	0.0007188
3587.9	0.0002911
3597.55	0.0007722
3607.19	0.0004665
3616.84	0.0005694
3626.48	0.0007004
3636.13	0.000749
3645.77	0.0004908
3655.42	0.000343
3665.06	0.0005044
3674.71	0.0001687
3684.35	0.0003496
3694	0.0002229
3703.64	0.0004196
3713.29	0.0003492
3722.93	0.0002193
3732.58	0.0002432
3742.22	0.0005298
3751.86	0.0006969
3761.51	0.0008035
3771.15	0.0005267
3780.8	0.0007192
3790.44	0.0004533
3800.09	0.0006196
3809.73	0.0007091
3819.38	0.0004662
3829.02	0.0006962
3838.67	0.0002623
3848.31	0.0004867
3857.96	0.0005954
3867.6	0.0007407
3877.25	0.0007766
3886.89	0.00105
3896.54	0.000681
3906.18	0.0007935
3915.83	0.0009086
3925.47	0.00101
3935.12	0.0009423
3944.76	0.0011
3954.41	0.00116
3964.05	0.0009328
3973.69	0.0009043
3983.34	0.00101
3992.98	0.0009097
