Infrared Spectrum: Ethanethiol
Formula: C 2 H 6 S
CAS: 75-08-1
State: gas
Origin: Sadtler Research Labs Under US-EPA Contract
1/CM	ABSORBANCE
450	0
462	0.0720434
474	0.0616114
486	0.0667924
498	0.0518096
510	0.0623816
522	0.0516696
534	0.0581808
546	0.0544001
558	0.0532099
570	0.0584609
582	0.0623816
594	0.0620315
606	0.0637818
618	0.0544701
630	0.0587409
642	0.0792547
654	0.0902468
666	0.0890565
678	0.0865361
690	0.0643419
702	0.0534899
714	0.0608413
726	0.0611213
738	0.0747739
750	0.059161
762	0.0628717
774	0.0710632
786	0.064552
798	0.0615414
810	0.0611213
822	0.0653921
834	0.0662323
846	0.0746339
858	0.0749139
870	0.0784846
882	0.0775044
894	0.0768743
906	0.0731636
918	0.0641319
930	0.0667924
942	0.0744238
954	0.0889865
966	0.10691
978	0.116852
990	0.104879
1002	0.091787
1014	0.0727435
1026	0.0619615
1038	0.0569906
1050	0.0618215
1062	0.0658822
1074	0.0819152
1086	0.091577
1098	0.0929073
1110	0.0903168
1122	0.0786946
1134	0.0623116
1146	0.0621015
1158	0.0566405
1170	0.0534899
1182	0.0558004
1194	0.0556603
1206	0.0588809
1218	0.0608413
1230	0.0842256
1242	0.132885
1254	0.231113
1266	0.292584
1278	0.283973
1290	0.263809
1302	0.133865
1314	0.0925572
1326	0.0763842
1338	0.0680526
1350	0.0623116
1362	0.0733036
1374	0.0900367
1386	0.091367
1398	0.117482
1410	0.111881
1422	0.119162
1434	0.138626
1446	0.154379
1458	0.183154
1470	0.135055
1482	0.118532
1494	0.0932573
1506	0.0744938
1518	0.064552
1530	0.0560104
1542	0.0490091
1554	0.0480989
1566	0.0497792
1578	0.0497792
1590	0.0503393
1602	0.048239
1614	0.0495692
1626	0.048729
1638	0.0479589
1650	0.0473288
1662	0.0469787
1674	0.0472588
1686	0.0463486
1698	0.0471888
1710	0.0476088
1722	0.0461386
1734	0.0434781
1746	0.0436181
1758	0.0435481
1770	0.043268
1782	0.0434081
1794	0.042918
1806	0.043198
1818	0.0423579
1830	0.0417978
1842	0.0417978
1854	0.0419378
1866	0.0411676
1878	0.0417978
1890	0.0414477
1902	0.0422178
1914	0.0418678
1926	0.042848
1938	0.0427079
1950	0.0427079
1962	0.0425679
1974	0.0422879
1986	0.0421478
1998	0.0419378
2010	0.0413077
2022	0.0409576
2034	0.0407476
2046	0.0403275
2058	0.0406075
2070	0.0401174
2082	0.0400474
2094	0.0406075
2106	0.0403975
2118	0.0408876
2130	0.0410276
2142	0.0408876
2154	0.0410976
2166	0.0412377
2178	0.0408176
2190	0.0409576
2202	0.0410276
2214	0.0410976
2226	0.0414477
2238	0.0410976
2250	0.0410976
2262	0.0406776
2274	0.0399074
2286	0.0389272
2298	0.0385071
2310	0.0386472
2322	0.0390673
2334	0.0397674
2346	0.0416577
2358	0.0401174
2370	0.0402575
2382	0.0393473
2394	0.0397674
2406	0.0397674
2418	0.0401875
2430	0.0410976
2442	0.0414477
2454	0.0406776
2466	0.0407476
2478	0.0402575
2490	0.0401875
2502	0.0394873
2514	0.0389972
2526	0.0401174
2538	0.0410276
2550	0.0435481
2562	0.0466987
2574	0.0519496
2586	0.0572006
2598	0.0598611
2610	0.0589509
2622	0.0524397
2634	0.0465586
2646	0.043058
2658	0.0420078
2670	0.0413077
2682	0.043268
2694	0.0461386
2706	0.048589
2718	0.0512495
2730	0.0527198
2742	0.0518796
2754	0.0527898
2766	0.0488691
2778	0.0457885
2790	0.0461386
2802	0.0494292
2814	0.0554503
2826	0.0654622
2838	0.0745638
2850	0.0925572
2862	0.136385
2874	0.229503
2886	0.228242
2898	0.259748
2910	0.256738
2922	0.346774
2934	0.435341
2946	0.521667
2958	0.669534
2970	0.624166
2982	0.609813
2994	0.557514
3006	0.347054
3018	0.233983
3030	0.145207
3042	0.0871662
3054	0.0600712
3066	0.0480989
3078	0.0452984
3090	0.0442482
3102	0.0440382
3114	0.0438982
3126	0.0435481
3138	0.0445283
3150	0.0441082
3162	0.0446683
3174	0.0457885
3186	0.0462086
3198	0.0470487
3210	0.0469087
3222	0.0474688
3234	0.0451584
3246	0.0427079
3258	0.0419378
3270	0.0421478
3282	0.042988
3294	0.0435481
3306	0.0438281
3318	0.042848
3330	0.0404675
3342	0.0406075
3354	0.0393473
3366	0.0401875
3378	0.0397674
3390	0.0405375
3402	0.0398374
3414	0.0402575
3426	0.0405375
3438	0.0412377
3450	0.0407476
3462	0.0413777
3474	0.0409576
3486	0.0399774
3498	0.0408176
3510	0.0391373
3522	0.0401875
3534	0.0399774
3546	0.0401875
3558	0.0399074
3570	0.0392073
3582	0.0396974
3594	0.0387172
3606	0.0406776
3618	0.0389972
3630	0.0411676
3642	0.0407476
3654	0.0414477
3666	0.0421478
3678	0.0423579
3690	0.0425679
3702	0.0414477
3714	0.0406776
3726	0.0413077
3738	0.0410276
3750	0.0424279
3762	0.0417277
3774	0.0393473
3786	0.0408176
3798	0.0422178
3810	0.0407476
3822	0.0414477
3834	0.0397674
3846	0.0417277
3858	0.0412377
3870	0.043198
3882	0.0408876
3894	0.0419378
3906	0.0404675
3918	0.0406776
3930	0.0426379
3942	0.0399074
3954	0.0410276
3966	0.0396974
