Infrared Spectrum: ETHANETHIOL
Formula: C2 H6 S
CAS: 75-08-1
State: SOLUTION (10% CCl4 FOR 2-7.6, 10% CS2 FOR 7.6-16.0 MICRON) VS SOLVENT
Melting point: 35 C
Class: COBLENTZ III
Instrument: BAIRD (PRISM)
Instrument parameters: NaCl PRISM
Sampling: TRANSMISSION
Path length: 0.012 CM, 0.010 CM
Resolution: 2
Origin: DOW CHEMICAL COMPANY
MICROMETERS	TRANSMITTANCE
1.977	0.93
2.01596	0.93
2.05493	0.931
2.09389	0.933
2.13285	0.934
2.17182	0.93
2.21078	0.908
2.24974	0.906
2.28871	0.912
2.32767	0.913
2.36663	0.923
2.4056	0.924
2.44456	0.925
2.48352	0.926
2.52248	0.93
2.56145	0.933
2.60041	0.926
2.63937	0.936
2.67834	0.929
2.7173	0.93
2.75626	0.936
2.79523	0.934
2.83419	0.934
2.87315	0.93
2.91212	0.933
2.95108	0.93
2.99004	0.914
3.02901	0.901
3.06797	0.883
3.10693	0.87
3.1459	0.863
3.18486	0.867
3.22382	0.855
3.26279	0.809
3.30175	0.654
3.34071	0.314
3.37968	0.237
3.41864	0.454
3.4576	0.54
3.49656	0.762
3.53553	0.84
3.57449	0.872
3.61345	0.88
3.65242	0.88
3.69138	0.884
3.73034	0.892
3.76931	0.894
3.80827	0.892
3.84723	0.879
3.8862	0.88
3.92516	0.889
3.96412	0.896
4.00309	0.902
4.04205	0.904
4.08101	0.907
4.11998	0.903
4.15894	0.912
4.1979	0.92
4.23687	0.922
4.27583	0.923
4.31479	0.919
4.35376	0.917
4.39272	0.913
4.43168	0.906
4.47064	0.909
4.50961	0.911
4.54857	0.908
4.58753	0.906
4.6265	0.904
4.66546	0.908
4.70442	0.909
4.74339	0.909
4.78235	0.902
4.82131	0.911
4.86028	0.909
4.89924	0.902
4.9382	0.904
4.97717	0.902
5.01613	0.902
5.05509	0.902
5.09406	0.901
5.13302	0.902
5.17198	0.902
5.21095	0.902
5.24991	0.902
5.28887	0.902
5.32784	0.906
5.3668	0.902
5.40576	0.903
5.44472	0.903
5.48369	0.898
5.52265	0.9
5.56161	0.9
5.60058	0.897
5.63954	0.892
5.6785	0.889
5.71747	0.883
5.75643	0.876
5.79539	0.88
5.83436	0.874
5.87332	0.874
5.91228	0.874
5.95125	0.876
5.99021	0.873
6.02917	0.885
6.06814	0.88
6.1071	0.869
6.14606	0.869
6.18503	0.864
6.22399	0.867
6.26295	0.863
6.30192	0.869
6.34088	0.87
6.37984	0.878
6.4188	0.879
6.45777	0.881
6.49673	0.874
6.53569	0.872
6.57466	0.853
6.61362	0.831
6.65258	0.811
6.69155	0.781
6.73051	0.751
6.76947	0.654
6.80844	0.554
6.8474	0.387
6.88636	0.393
6.92533	0.521
6.96429	0.616
7.00325	0.683
7.04222	0.702
7.08118	0.716
7.12014	0.73
7.15911	0.729
7.19807	0.652
7.23703	0.588
7.276	0.662
7.31496	0.761
7.35392	0.8
7.39288	0.816
7.43185	0.822
7.47081	0.819
7.50977	0.806
7.54874	0.785
7.5877	0.752
7.62666	0.744
7.66563	0.734
7.70459	0.716
7.74355	0.68
7.78252	0.562
7.82148	0.406
7.86044	0.231
7.89941	0.306
7.93837	0.484
7.97733	0.548
8.0163	0.607
8.05526	0.702
8.09422	0.753
8.13319	0.781
8.17215	0.801
8.21111	0.812
8.25008	0.817
8.28904	0.822
8.328	0.827
8.36696	0.829
8.40593	0.831
8.44489	0.831
8.48385	0.833
8.52282	0.83
8.56178	0.822
8.60074	0.803
8.63971	0.792
8.67867	0.794
8.71763	0.8
8.7566	0.801
8.79556	0.801
8.83452	0.799
8.87349	0.794
8.91245	0.784
8.95141	0.779
8.99038	0.767
9.02934	0.752
9.0683	0.724
9.10727	0.676
9.14623	0.633
9.18519	0.629
9.22416	0.662
9.26312	0.702
9.30208	0.733
9.34104	0.755
9.38001	0.772
9.41897	0.781
9.45793	0.791
9.4969	0.801
9.53586	0.807
9.57482	0.817
9.61379	0.823
9.65275	0.827
9.69171	0.829
9.73068	0.824
9.76964	0.822
9.8086	0.825
9.84757	0.828
9.88653	0.831
9.92549	0.831
9.96446	0.827
10.0034	0.812
10.0424	0.779
10.0813	0.785
10.1203	0.781
10.1593	0.767
10.1982	0.745
10.2372	0.707
10.2762	0.662
10.3151	0.643
10.3541	0.674
10.3931	0.752
10.432	0.803
10.471	0.842
10.5099	0.872
10.5489	0.889
10.5879	0.9
10.6268	0.906
10.6658	0.912
10.7048	0.917
10.7437	0.92
10.7827	0.923
10.8216	0.925
10.8606	0.929
10.8996	0.93
10.9385	0.93
10.9775	0.93
11.0165	0.93
11.0554	0.926
11.0944	0.923
11.1334	0.917
11.1723	0.911
11.2113	0.901
11.2502	0.894
11.2892	0.883
11.3282	0.863
11.3671	0.84
11.4061	0.805
11.4451	0.763
11.484	0.736
11.523	0.725
11.5619	0.733
11.6009	0.755
11.6399	0.783
11.6788	0.807
11.7178	0.841
11.7568	0.863
11.7957	0.887
11.8347	0.903
11.8737	0.92
11.9126	0.93
11.9516	0.933
11.9905	0.935
12.0295	0.934
12.0685	0.941
12.1074	0.946
12.1464	0.951
12.1854	0.952
12.2243	0.952
12.2633	0.951
12.3022	0.951
12.3412	0.948
12.3802	0.945
12.4191	0.945
12.4581	0.943
12.4971	0.941
12.536	0.935
12.575	0.933
12.614	0.93
12.6529	0.923
12.6919	0.914
12.7308	0.909
12.7698	0.902
12.8088	0.901
12.8477	0.896
12.8867	0.895
12.9257	0.894
12.9646	0.895
13.0036	0.9
13.0425	0.902
13.0815	0.896
13.1205	0.894
13.1594	0.89
13.1984	0.887
13.2374	0.884
13.2763	0.879
13.3153	0.872
13.3543	0.864
13.3932	0.852
13.4322	0.835
13.4711	0.819
13.5101	0.802
13.5491	0.788
13.588	0.779
13.627	0.778
13.666	0.784
13.7049	0.796
13.7439	0.803
13.7828	0.814
13.8218	0.82
13.8608	0.824
13.8997	0.831
13.9387	0.835
13.9777	0.835
14.0166	0.834
14.0556	0.833
14.0946	0.829
14.1335	0.824
14.1725	0.823
14.2114	0.82
14.2504	0.814
14.2894	0.811
14.3283	0.807
14.3673	0.805
14.4063	0.8
14.4452	0.8
14.4842	0.796
14.5232	0.792
14.5621	0.788
14.6011	0.781
14.64	0.775
14.679	0.772
14.718	0.764
14.7569	0.76
14.7959	0.75
14.8349	0.741
14.8738	0.733
14.9128	0.728
14.9517	0.723
14.9907	0.717
15.0297	0.691
15.0686	0.669
15.1076	0.645
15.1466	0.627
15.1855	0.613
15.2245	0.601
15.2635	0.593
15.3024	0.59
15.3414	0.59
15.3803	0.591
15.4193	0.598
15.4583	0.601
15.4972	0.606
15.5362	0.612
15.5752	0.615
15.6141	0.621
15.6531	0.624
15.692	0.629
15.731	0.632
15.77	0.634
15.8089	0.637
15.8479	0.637
15.8869	0.637
15.9258	0.637
15.9648	0.639
