Infrared Spectrum: ETHANETHIOL
Formula: C2 H6 S
CAS: 75-08-1
State: GAS (250 mmHg)
Boiling point: 35 C
Class: COBLENTZ
Instrument: BAIRD NaCl PRISM
Sampling: TRANSMISSION
Path length: 10 CM
Resolution: 4
Origin: DOW CHEMICAL COMPANY
MICROMETERS	TRANSMITTANCE
2.019	0.952
2.05804	0.953
2.09708	0.953
2.13612	0.956
2.17516	0.918
2.2142	0.852
2.25324	0.863
2.29228	0.874
2.33132	0.899
2.37036	0.914
2.4094	0.917
2.44844	0.92
2.48748	0.925
2.52652	0.933
2.56556	0.941
2.6046	0.944
2.64364	0.942
2.68268	0.928
2.72172	0.936
2.76076	0.94
2.7998	0.934
2.83884	0.933
2.87788	0.935
2.91692	0.935
2.95596	0.922
2.995	0.894
3.03404	0.86
3.07308	0.828
3.11212	0.83
3.15116	0.849
3.1902	0.86
3.22924	0.815
3.26828	0.587
3.30732	0.239
3.34636	0.045
3.3854	0.031
3.42444	0.047
3.46348	0.181
3.50252	0.622
3.54156	0.81
3.5806	0.84
3.61964	0.809
3.65868	0.826
3.69772	0.885
3.73676	0.912
3.7758	0.835
3.81484	0.721
3.85388	0.763
3.89292	0.897
3.93196	0.936
3.971	0.944
4.01004	0.945
4.04908	0.945
4.08812	0.945
4.12716	0.942
4.1662	0.935
4.20524	0.935
4.24428	0.937
4.28332	0.945
4.32236	0.948
4.3614	0.948
4.40044	0.945
4.43948	0.942
4.47852	0.948
4.51756	0.951
4.5566	0.951
4.59564	0.951
4.63468	0.952
4.67372	0.952
4.71276	0.953
4.7518	0.957
4.79084	0.958
4.82988	0.962
4.86892	0.963
4.90796	0.964
4.947	0.964
4.98604	0.958
5.02508	0.954
5.06412	0.952
5.10316	0.951
5.1422	0.95
5.18124	0.954
5.22028	0.959
5.25932	0.962
5.29836	0.963
5.3374	0.964
5.37644	0.962
5.41548	0.959
5.45452	0.956
5.49356	0.951
5.53259	0.945
5.57163	0.934
5.61067	0.908
5.64971	0.864
5.68875	0.857
5.72779	0.864
5.76683	0.883
5.80587	0.89
5.84491	0.891
5.88395	0.897
5.92299	0.9
5.96203	0.9
6.00107	0.885
6.04011	0.881
6.07915	0.874
6.11819	0.885
6.15723	0.884
6.19627	0.879
6.23531	0.888
6.27435	0.889
6.31339	0.896
6.35243	0.901
6.39147	0.907
6.43051	0.903
6.46955	0.909
6.50859	0.9
6.54763	0.879
6.58667	0.818
6.62571	0.706
6.66475	0.587
6.70379	0.434
6.74283	0.311
6.78187	0.249
6.82091	0.204
6.85995	0.181
6.89899	0.208
6.93803	0.255
6.97707	0.335
7.01611	0.423
7.05515	0.489
7.09419	0.49
7.13323	0.436
7.17227	0.383
7.21131	0.439
7.25035	0.468
7.28939	0.537
7.32843	0.65
7.36747	0.743
7.40651	0.773
7.44555	0.753
7.48459	0.71
7.52363	0.695
7.56267	0.644
7.60171	0.569
7.64075	0.49
7.67979	0.344
7.71883	0.164
7.75787	0.077
7.79691	0.072
7.83595	0.071
7.87499	0.064
7.91403	0.064
7.95307	0.143
7.99211	0.299
8.03115	0.456
8.07019	0.575
8.10923	0.687
8.14827	0.737
8.18731	0.766
8.22635	0.784
8.26539	0.793
8.30443	0.801
8.34347	0.809
8.38251	0.812
8.42155	0.811
8.46059	0.8
8.49963	0.784
8.53867	0.776
8.57771	0.773
8.61675	0.76
8.65579	0.753
8.69483	0.757
8.73387	0.767
8.77291	0.774
8.81195	0.771
8.85099	0.75
8.89003	0.717
8.92907	0.652
8.96811	0.569
9.00715	0.502
9.04619	0.484
9.08523	0.462
9.12427	0.475
9.16331	0.469
9.20235	0.476
9.24139	0.504
9.28043	0.565
9.31947	0.615
9.35851	0.649
9.39755	0.67
9.43659	0.682
9.47563	0.695
9.51467	0.712
9.55371	0.739
9.59275	0.777
9.63179	0.788
9.67083	0.729
9.70987	0.766
9.74891	0.783
9.78795	0.778
9.82699	0.748
9.86603	0.698
9.90507	0.639
9.94411	0.586
9.98315	0.562
10.0222	0.549
10.0612	0.526
10.1003	0.512
10.1393	0.445
10.1783	0.384
10.2174	0.366
10.2564	0.397
10.2955	0.441
10.3345	0.452
10.3735	0.491
10.4126	0.501
10.4516	0.524
10.4907	0.582
10.5297	0.65
10.5687	0.708
10.6078	0.748
10.6468	0.771
10.6859	0.784
10.7249	0.793
10.7639	0.799
10.803	0.798
10.842	0.79
10.8811	0.782
10.9201	0.767
10.9591	0.753
10.9982	0.72
11.0372	0.71
11.0763	0.71
11.1153	0.694
11.1543	0.682
11.1934	0.667
11.2324	0.653
11.2715	0.644
11.3105	0.637
11.3495	0.619
11.3886	0.61
11.4276	0.607
11.4667	0.568
11.5057	0.581
11.5447	0.618
11.5838	0.628
11.6228	0.638
11.6619	0.648
11.7009	0.659
11.7399	0.676
11.779	0.697
11.818	0.714
11.8571	0.731
11.8961	0.751
11.9351	0.767
11.9742	0.787
12.0132	0.802
12.0523	0.818
12.0913	0.829
12.1303	0.838
12.1694	0.845
12.2084	0.85
12.2475	0.852
12.2865	0.855
12.3255	0.857
12.3646	0.857
12.4036	0.857
12.4427	0.858
12.4817	0.857
12.5207	0.855
12.5598	0.855
12.5988	0.851
12.6379	0.846
12.6769	0.838
12.7159	0.83
12.755	0.813
12.794	0.809
12.8331	0.815
12.8721	0.815
12.9111	0.811
12.9502	0.809
12.9892	0.804
13.0283	0.801
13.0673	0.799
13.1063	0.796
13.1454	0.794
13.1844	0.791
13.2235	0.789
13.2625	0.784
13.3015	0.782
13.3406	0.778
13.3796	0.774
13.4187	0.773
13.4577	0.77
13.4967	0.768
13.5358	0.77
13.5748	0.766
13.6139	0.762
13.6529	0.772
13.6919	0.781
13.731	0.784
13.77	0.791
13.8091	0.796
13.8481	0.801
13.8871	0.805
13.9262	0.809
13.9652	0.798
14.0043	0.773
14.0433	0.774
14.0823	0.795
14.1214	0.818
14.1604	0.832
14.1995	0.835
14.2385	0.841
14.2775	0.845
14.3166	0.845
14.3556	0.847
14.3947	0.847
14.4337	0.846
14.4727	0.843
14.5118	0.834
14.5508	0.826
14.5899	0.815
14.6289	0.796
14.6679	0.774
14.707	0.742
14.746	0.708
14.7851	0.677
14.8241	0.65
14.8631	0.632
14.9022	0.622
14.9412	0.622
14.9803	0.628
15.0193	0.632
15.0583	0.631
15.0974	0.63
15.1364	0.628
15.1755	0.631
15.2145	0.636
15.2535	0.638
15.2926	0.641
15.3316	0.642
15.3707	0.642
15.4097	0.643
15.4487	0.645
15.4878	0.652
15.5268	0.659
15.5659	0.666
15.6049	0.671
15.6439	0.68
15.683	0.686
15.722	0.689
15.7611	0.694
15.8001	0.703
15.8391	0.71
15.8782	0.715
15.9172	0.721
15.9563	0.725
