Infrared Spectrum: ETHYLENE GLYCOL MONOVINYL ETHER
Formula: C4 H8 O2
CAS: 764-48-7
State: SOLUTION UNDER NITROGEN (10% CCl4 FOR 5000-1330, 10% CS2 FOR 1330-625 CM^-^1)
Class: COBLENTZ
Instrument: Not specified, most likely a prism, grating, or hybrid spectrometer.
Sampling: TRANSMISSION
Path length: 0.0123 CM, 0.0120 CM
Resolution: 4
Origin: DOW CHEMICAL COMPANY
MICROMETERS	TRANSMITTANCE
2.041	0.883
2.08218	0.883
2.12335	0.882
2.16453	0.87
2.2057	0.863
2.24688	0.851
2.28806	0.861
2.32923	0.861
2.37041	0.87
2.41158	0.861
2.45276	0.858
2.49394	0.876
2.53511	0.882
2.57629	0.89
2.61746	0.873
2.65864	0.87
2.69982	0.776
2.74099	0.565
2.78217	0.475
2.82334	0.323
2.86452	0.241
2.9057	0.22
2.94687	0.239
2.98805	0.295
3.02923	0.441
3.0704	0.552
3.11158	0.635
3.15275	0.67
3.19393	0.661
3.23511	0.7
3.27628	0.726
3.31746	0.625
3.35863	0.302
3.39981	0.285
3.44099	0.34
3.48216	0.634
3.52334	0.728
3.56451	0.781
3.60569	0.796
3.64687	0.806
3.68804	0.834
3.72922	0.849
3.77039	0.851
3.81157	0.847
3.85275	0.859
3.89392	0.859
3.9351	0.858
3.97627	0.871
4.01745	0.885
4.05863	0.878
4.0998	0.88
4.14098	0.887
4.18215	0.892
4.22333	0.888
4.26451	0.88
4.30568	0.868
4.34686	0.885
4.38803	0.894
4.42921	0.89
4.47039	0.899
4.51156	0.89
4.55274	0.876
4.59391	0.87
4.63509	0.873
4.67627	0.885
4.71744	0.899
4.75862	0.897
4.79979	0.902
4.84097	0.897
4.88215	0.875
4.92332	0.864
4.9645	0.882
5.00568	0.885
5.04685	0.876
5.08803	0.875
5.1292	0.88
5.17038	0.868
5.21156	0.87
5.25273	0.883
5.29391	0.876
5.33508	0.883
5.37626	0.887
5.41744	0.895
5.45861	0.89
5.49979	0.878
5.54096	0.878
5.58214	0.882
5.62332	0.887
5.66449	0.887
5.70567	0.885
5.74684	0.871
5.78802	0.871
5.8292	0.861
5.87037	0.818
5.91155	0.738
5.95272	0.596
5.9939	0.358
6.03508	0.259
6.07625	0.105
6.11743	0.078
6.1586	0.042
6.19978	0.237
6.24096	0.381
6.28213	0.432
6.32331	0.495
6.36448	0.499
6.40566	0.454
6.44684	0.432
6.48801	0.507
6.52919	0.543
6.57036	0.577
6.61154	0.637
6.65272	0.694
6.69389	0.673
6.73507	0.642
6.77625	0.581
6.81742	0.411
6.8586	0.464
6.89977	0.589
6.94095	0.584
6.98213	0.552
7.0233	0.464
7.06448	0.398
7.10565	0.389
7.14683	0.415
7.18801	0.475
7.22918	0.511
7.27036	0.418
7.31153	0.331
7.35271	0.517
7.39389	0.54
7.43506	0.512
7.47624	0.384
7.51741	0.181
7.55859	0.119
7.59977	0.324
7.64094	0.533
7.68212	0.577
7.72329	0.569
7.76447	0.547
7.80565	0.535
7.84682	0.533
7.888	0.529
7.92917	0.507
7.97035	0.475
8.01153	0.435
8.0527	0.413
8.09388	0.381
8.13505	0.304
8.17623	0.201
8.21741	0.085
8.25858	0.029
8.29976	0.008
8.34093	0.006
8.38211	0.022
8.42329	0.07
8.46446	0.105
8.50564	0.143
8.54681	0.198
8.58799	0.254
8.62917	0.324
8.67034	0.442
8.71152	0.517
8.7527	0.56
8.79387	0.581
8.83505	0.596
8.87622	0.589
8.9174	0.557
8.95858	0.5
8.99975	0.396
9.04093	0.288
9.0821	0.153
9.12328	0.1
9.16446	0.08
9.20563	0.054
9.24681	0.037
9.28798	0.037
9.32916	0.044
9.37034	0.07
9.41151	0.092
9.45269	0.097
9.49386	0.114
9.53504	0.188
9.57622	0.242
9.61739	0.271
9.65857	0.271
9.69974	0.27
9.74092	0.278
9.7821	0.28
9.82327	0.268
9.86445	0.292
9.90562	0.36
9.9468	0.365
9.98798	0.396
10.0292	0.454
10.0703	0.452
10.1115	0.384
10.1527	0.254
10.1939	0.117
10.235	0.046
10.2762	0.138
10.3174	0.218
10.3586	0.182
10.3997	0.105
10.4409	0.107
10.4821	0.241
10.5233	0.324
10.5644	0.329
10.6056	0.305
10.6468	0.376
10.688	0.476
10.7291	0.533
10.7703	0.572
10.8115	0.61
10.8527	0.644
10.8938	0.658
10.935	0.671
10.9762	0.666
11.0174	0.634
11.0586	0.584
11.0997	0.488
11.1409	0.369
11.1821	0.285
11.2233	0.273
11.2644	0.37
11.3056	0.446
11.3468	0.497
11.388	0.529
11.4291	0.538
11.4703	0.547
11.5115	0.557
11.5527	0.555
11.5938	0.545
11.635	0.528
11.6762	0.507
11.7174	0.485
11.7585	0.449
11.7997	0.41
11.8409	0.352
11.8821	0.295
11.9233	0.206
11.9644	0.158
12.0056	0.124
12.0468	0.087
12.088	0.073
12.1291	0.061
12.1703	0.044
12.2115	0.022
12.2527	0.011
12.2938	0.018
12.335	0.063
12.3762	0.165
12.4174	0.283
12.4585	0.411
12.4997	0.483
12.5409	0.543
12.5821	0.589
12.6232	0.634
12.6644	0.654
12.7056	0.676
12.7468	0.692
12.7879	0.705
12.8291	0.711
12.8703	0.716
12.9115	0.724
12.9527	0.728
12.9938	0.728
13.035	0.729
13.0762	0.729
13.1174	0.728
13.1585	0.724
13.1997	0.721
13.2409	0.719
13.2821	0.717
13.3232	0.714
13.3644	0.707
13.4056	0.704
13.4468	0.699
13.4879	0.695
13.5291	0.688
13.5703	0.687
13.6115	0.678
13.6526	0.673
13.6938	0.666
13.735	0.658
13.7762	0.654
13.8173	0.644
13.8585	0.637
13.8997	0.627
13.9409	0.617
13.9821	0.61
14.0232	0.591
14.0644	0.579
14.1056	0.567
14.1468	0.552
14.1879	0.531
14.2291	0.509
14.2703	0.49
14.3115	0.482
14.3526	0.478
14.3938	0.485
14.435	0.494
14.4762	0.502
14.5173	0.505
14.5585	0.509
14.5997	0.507
14.6409	0.504
14.682	0.502
14.7232	0.497
14.7644	0.485
14.8056	0.48
14.8467	0.471
14.8879	0.47
14.9291	0.468
14.9703	0.463
15.0115	0.456
15.0526	0.446
15.0938	0.437
15.135	0.427
15.1762	0.413
15.2173	0.408
15.2585	0.401
15.2997	0.396
15.3409	0.389
15.382	0.382
15.4232	0.381
15.4644	0.379
15.5056	0.374
15.5467	0.369
15.5879	0.364
15.6291	0.362
15.6703	0.358
15.7114	0.357
15.7526	0.357
15.7938	0.352
15.835	0.348
