Infrared Spectrum: 1-Butanethiol, 3-methyl-
Formula: C 5 H 12 S
CAS: 541-31-1
State: gas
Origin: Sadtler Research Labs Under US-EPA Contract
1/CM	ABSORBANCE
450	0.0796966
462	0.0183698
474	0.012011
486	0.0406961
498	0.0187937
510	0.0235981
522	0.0202068
534	0.0144132
546	0.0128588
558	0.0235981
570	0.0175219
582	0.0161089
594	0.00918489
606	0.0234568
618	0.0173806
630	0.0192176
642	0.0186524
654	0.0248699
666	0.0312286
678	0.024022
690	0.0197828
702	0.0269894
714	0.0284025
726	0.0289677
738	0.0412614
750	0.0404135
762	0.0281199
774	0.0238807
786	0.0231742
798	0.0238807
810	0.0183698
822	0.0200655
834	0.017098
846	0.0193589
858	0.029109
870	0.0310873
882	0.0300982
894	0.0230329
906	0.0245872
918	0.0347613
930	0.029109
942	0.0248699
954	0.0252938
966	0.0250112
978	0.0272721
990	0.0260003
1002	0.0228916
1014	0.0219024
1026	0.0220437
1038	0.0190763
1050	0.0154024
1062	0.0145545
1074	0.0161089
1086	0.0190763
1098	0.0220437
1110	0.0235981
1122	0.0233155
1134	0.0230329
1146	0.0268481
1158	0.0433809
1170	0.065566
1182	0.0456418
1194	0.0422505
1206	0.0394244
1218	0.0570876
1230	0.0651421
1242	0.0566637
1254	0.0428157
1266	0.0623159
1278	0.0956642
1290	0.0816749
1302	0.0614681
1314	0.0494571
1326	0.0406961
1338	0.0520006
1350	0.0755987
1362	0.0787074
1374	0.119121
1386	0.14173
1398	0.0924141
1410	0.0390005
1422	0.0486093
1434	0.0758813
1446	0.108523
1458	0.146252
1470	0.184546
1482	0.111914
1494	0.0470549
1506	0.0227503
1518	0.0146958
1530	0.010598
1542	0.0117284
1554	0.0104566
1566	0.00904358
1578	0.0094675
1590	0.00960881
1602	0.00975011
1614	0.00847836
1626	0.00819575
1638	0.00847836
1650	0.010174
1662	0.00904358
1674	0.00748922
1686	0.00989142
1698	0.00918489
1710	0.00748922
1722	0.00748922
1734	0.00635877
1746	0.00536963
1758	0.00508702
1770	0.0048044
1782	0.0046631
1794	0.00381526
1806	0.00438049
1818	0.00395657
1830	0.00395657
1842	0.00423918
1854	0.00367396
1866	0.00409787
1878	0.00367396
1890	0.00381526
1902	0.00353265
1914	0.00381526
1926	0.00325004
1938	0.00325004
1950	0.00339134
1962	0.00282612
1974	0.00310873
1986	0.00268481
1998	0.0024022
2010	0.00325004
2022	0.00268481
2034	0.00339134
2046	0.00310873
2058	0.00282612
2070	0.00254351
2082	0.00211959
2094	0.0024022
2106	0.00254351
2118	0.00211959
2130	0.00254351
2142	0.0022609
2154	0.0022609
2166	0.00211959
2178	0.00197828
2190	0.00183698
2202	0.00211959
2214	0.00183698
2226	0.000847836
2238	0.00113045
2250	0.00155437
2262	0.00169567
2274	0.00183698
2286	0.00183698
2298	0.00183698
2310	0.000423918
2322	0
2334	0
2346	0
2358	0
2370	0
2382	0.00183698
2394	0.00197828
2406	0.00155437
2418	0.00183698
2430	0.00141306
2442	0.00155437
2454	0.00113045
2466	0.00183698
2478	0.00211959
2490	0.00169567
2502	0.00197828
2514	0.00141306
2526	0.00141306
2538	0.00155437
2550	0.00183698
2562	0.00310873
2574	0.00565224
2586	0.012011
2598	0.0141306
2610	0.010598
2622	0.00833705
2634	0.00904358
2646	0.00975011
2658	0.00918489
2670	0.00861967
2682	0.00861967
2694	0.00805444
2706	0.00890228
2718	0.0107393
2730	0.0169567
2742	0.0186524
2754	0.0159676
2766	0.0154024
2778	0.015685
2790	0.0190763
2802	0.0244459
2814	0.032783
2826	0.0459244
2838	0.0710769
2850	0.127034
2862	0.182426
2874	0.317939
2886	0.430842
2898	0.37333
2910	0.468571
2922	0.563104
2934	0.639975
2946	0.681236
2958	0.941381
2970	1.37618
2982	0.564517
2994	0.154589
3006	0.0565224
3018	0.0333482
3030	0.0234568
3042	0.0187937
3054	0.0169567
3066	0.0163915
3078	0.0155437
3090	0.0130002
3102	0.0121523
3114	0.0115871
3126	0.0110219
3138	0.0118697
3150	0.0115871
3162	0.0132828
3174	0.0134241
3186	0.0131415
3198	0.0122936
3210	0.0094675
3222	0.00692399
3234	0.00409787
3246	0.00367396
3258	0.00310873
3270	0.00254351
3282	0.00296743
3294	0.00310873
3306	0.00367396
3318	0.00339134
3330	0.00409787
3342	0.0048044
3354	0.00452179
3366	0.00367396
3378	0.00310873
3390	0.00395657
3402	0.00325004
3414	0.00339134
3426	0.0022609
3438	0.00183698
3450	0.00254351
3462	0.00155437
3474	0.00268481
3486	0.0024022
3498	0.0022609
3510	0.00254351
3522	0.00141306
3534	0.00183698
3546	0.00197828
3558	0.00339134
3570	0.00197828
3582	0.00141306
3594	0.00339134
3606	0.000847836
3618	0.0024022
3630	0.00367396
3642	0.00169567
3654	0.00452179
3666	0.000989142
3678	0.00423918
3690	0.00452179
3702	0.00113045
3714	0.000989142
3726	0.000282612
3738	0.00197828
3750	0.0046631
3762	0.000423918
3774	0.00127175
3786	0.00141306
3798	0.00438049
3810	0.000141306
3822	0.00423918
3834	0.00353265
3846	0.00296743
3858	0.00339134
3870	0.00353265
3882	0.00183698
3894	0.00113045
3906	0.00141306
3918	0.00127175
3930	0.00268481
3942	0.0022609
3954	0.00339134
3966	0.00127175
