Infrared Spectrum: Propane, 1,2-dibromo-
Formula: C 3 H 6 Br 2
CAS: 78-75-1
State: gas
Origin: Sadtler Research Labs Under US-EPA Contract
1/CM	ABSORBANCE
450	0.0206222
462	0.0174159
474	0.0105661
486	0.0125336
498	0.0133352
510	0.0087444
522	0.0157399
534	0.021278
546	0.0396413
558	0.128033
570	0.583179
582	0.570864
594	0.0511547
606	0.0110762
618	0.00961884
630	0.0107848
642	0.0267433
654	0.115135
666	0.0963341
678	0.0333016
690	0.00699552
702	0.00568386
714	0.0043722
726	0.00459081
738	0.00568386
750	0.00765135
762	0.0110034
774	0.00378924
786	0.00539238
798	0.00233184
810	0.00524664
822	0.0114406
834	0.0189462
846	0.023537
858	0.0193105
870	0.0120235
882	0.0200392
894	0.038694
906	0.0389126
918	0.0191648
930	0.00735987
942	0.00641256
954	0.00561099
966	0.00692265
978	0.0163958
990	0.0462724
1002	0.198571
1014	0.144428
1026	0.0439406
1038	0.0860595
1050	0.062231
1062	0.0271805
1074	0.0122422
1086	0.0104204
1098	0.0142096
1110	0.0195292
1122	0.0333745
1134	0.0609922
1146	0.133352
1158	0.511839
1170	0.330976
1182	0.0451065
1194	0.0394955
1206	0.0975001
1218	0.14042
1230	0.14574
1242	0.138672
1254	0.0802299
1266	0.0198935
1278	0.00830718
1290	0.00721413
1302	0.0108576
1314	0.0319899
1326	0.0340303
1338	0.021278
1350	0.0167601
1362	0.0222982
1374	0.0690808
1386	0.132696
1398	0.0983016
1410	0.0366536
1422	0.0435763
1434	0.0991032
1446	0.135392
1458	0.124316
1470	0.0755662
1482	0.0303868
1494	0.00896301
1506	0.00597534
1518	0.00553812
1530	0.00531951
1542	0.0051009
1554	0.00648543
1566	0.00371637
1578	0.00553812
1590	0.0036435
1602	0.00349776
1614	0.00386211
1626	0.00400785
1638	0.00386211
1650	0.00495516
1662	0.00378924
1674	0.00459081
1686	0.00641256
1698	0.00422646
1710	0.00357063
1722	0.00255045
1734	0.00233184
1746	0.00393498
1758	0.00255045
1770	0.00255045
1782	0.00262332
1794	0.00313341
1806	0.00349776
1818	0.00386211
1830	0.00247758
1842	0.00298767
1854	0.00306054
1866	0.00262332
1878	0.00240471
1890	0.00298767
1902	0.00255045
1914	0.00211323
1926	0.00225897
1938	0.00174888
1950	0.0021861
1962	0.00189462
1974	0.00204036
1986	0.00211323
1998	0.0021861
2010	0.00320628
2022	0.00276906
2034	0.00225897
2046	0.00240471
2058	0.00247758
2070	0.00204036
2082	0.00225897
2094	0.00189462
2106	0.00204036
2118	0.00174888
2130	0.00196749
2142	0.00196749
2154	0.00262332
2166	0.00327915
2178	0.0029148
2190	0.00247758
2202	0.00204036
2214	0.00276906
2226	0.00378924
2238	0.00466368
2250	0.00415359
2262	0.00466368
2274	0.00524664
2286	0.00444507
2298	0.00182175
2310	0.00036435
2322	0.00080157
2334	0.00123879
2346	0.0029148
2358	0.00276906
2370	0.00335202
2382	0.0036435
2394	0.00378924
2406	0.00335202
2418	0.00349776
2430	0.00400785
2442	0.00408072
2454	0.00415359
2466	0.00400785
2478	0.00349776
2490	0.00386211
2502	0.00408072
2514	0.00349776
2526	0.00196749
2538	0.00189462
2550	0.00276906
2562	0.00284193
2574	0.00276906
2586	0.00276906
2598	0.00276906
2610	0.00276906
2622	0.00284193
2634	0.00298767
2646	0.00313341
2658	0.00400785
2670	0.00590247
2682	0.00539238
2694	0.00349776
2706	0.00262332
2718	0.00255045
2730	0.00276906
2742	0.00502803
2754	0.00590247
2766	0.00386211
2778	0.00327915
2790	0.00313341
2802	0.00400785
2814	0.00568386
2826	0.00808857
2838	0.011222
2850	0.0109305
2862	0.0192377
2874	0.0340303
2886	0.038111
2898	0.0306783
2910	0.0294395
2922	0.0447422
2934	0.0776794
2946	0.0886828
2958	0.0758577
2970	0.0808857
2982	0.139036
2994	0.244042
3006	0.139473
3018	0.0542882
3030	0.0195292
3042	0.0122422
3054	0.00743274
3066	0.00495516
3078	0.0058296
3090	0.00575673
3102	0.00480942
3114	0.00393498
3126	0.00378924
3138	0.00408072
3150	0.00444507
3162	0.00429933
3174	0.00378924
3186	0.00459081
3198	0.00517377
3210	0.00670404
3222	0.00626682
3234	0.00561099
3246	0.00466368
3258	0.00400785
3270	0.00466368
3282	0.0051009
3294	0.0043722
3306	0.00371637
3318	0.00349776
3330	0.00393498
3342	0.00349776
3354	0.00327915
3366	0.00284193
3378	0.00393498
3390	0.00444507
3402	0.0043722
3414	0.00444507
3426	0.00422646
3438	0.00400785
3450	0.00327915
3462	0.00349776
3474	0.00284193
3486	0.00320628
3498	0.00327915
3510	0.00400785
3522	0.00371637
3534	0.00349776
3546	0.00320628
3558	0.00284193
3570	0.00327915
3582	0.00386211
3594	0.00233184
3606	0.00357063
3618	0.00255045
3630	0.00233184
3642	0.00502803
3654	0.00480942
3666	0.00612108
3678	0
3690	0.00502803
3702	0.0043722
3714	0.00342489
3726	0.00393498
3738	0.00240471
3750	0.00335202
3762	0.00327915
3774	0.00298767
3786	0.00488229
3798	0.00240471
3810	0.00415359
3822	0.00051009
3834	0.00298767
3846	0.00189462
3858	0.00284193
3870	0.0029148
3882	0.00349776
3894	0.0036435
3906	0.00196749
3918	0.00357063
3930	0.00488229
3942	0.00495516
3954	0.00378924
3966	0.00386211
