Infrared Spectrum: PROPANE, 1,2-DIBROMO-
Formula: C3 H6 Br2
CAS: 78-75-1
State: LIQUID (NEAT) FOR 2.6-26 MICRON
Class: COBLENTZ III
Instrument: DOW KBr FOREPRISM-GRATING
Instrument parameters: BLAZED AT 3.5, 12.0, 20.0 AND CHANGED AT 5.0, 7.5, 14.9 MICRON
Sampling: TRANSMISSION
Path length: 0.003 CM
Resolution: 2
Origin: DOW CHEMICAL COMPANY
1/CM	TRANSMITTANCE
3800	0.8933
3791	0.8928
3782	0.8925
3773	0.8925
3764	0.8932
3755	0.894
3746	0.8952
3737	0.8962
3728	0.8958
3719	0.8953
3710	0.8938
3701	0.8917
3692	0.8886
3683	0.8853
3674	0.8825
3665	0.8877
3656	0.8934
3647	0.8941
3638	0.8914
3629	0.8868
3620	0.8831
3611	0.8864
3602	0.8914
3593	0.8928
3584	0.8909
3575	0.8886
3566	0.8865
3557	0.8843
3548	0.8835
3539	0.8834
3530	0.8834
3521	0.8835
3512	0.8837
3503	0.8837
3494	0.8827
3485	0.8817
3476	0.8808
3467	0.8798
3458	0.8795
3449	0.8792
3440	0.8789
3431	0.8788
3422	0.8789
3413	0.879
3404	0.8785
3395	0.8761
3386	0.8733
3377	0.8724
3368	0.8745
3359	0.877
3350	0.8795
3341	0.8803
3332	0.8802
3323	0.8775
3314	0.8751
3305	0.8728
3296	0.8709
3287	0.8691
3278	0.8686
3269	0.8687
3260	0.8694
3251	0.8704
3242	0.8713
3233	0.8718
3224	0.8691
3215	0.8638
3206	0.8615
3197	0.8631
3188	0.8647
3179	0.8661
3170	0.8662
3161	0.8658
3152	0.8656
3143	0.8653
3134	0.8651
3125	0.8648
3116	0.8647
3107	0.8646
3098	0.8663
3089	0.8615
3080	0.8588
3071	0.8558
3062	0.8514
3053	0.8433
3044	0.8309
3035	0.8025
3026	0.7671
3017	0.7686
3008	0.7648
2999	0.6908
2990	0.4729
2981	0.2888
2972	0.2399
2963	0.3255
2954	0.4618
2945	0.5826
2936	0.6164
2927	0.405
2918	0.4649
2909	0.6419
2900	0.7136
2891	0.728
2882	0.7425
2873	0.7399
2864	0.6907
2855	0.7053
2846	0.7701
2837	0.7956
2828	0.8221
2819	0.8149
2810	0.8157
2801	0.8361
2792	0.8513
2783	0.8593
2774	0.8627
2765	0.8649
2756	0.8675
2747	0.8681
2738	0.865
2729	0.8411
2720	0.852
2711	0.8598
2702	0.8633
2693	0.8647
2684	0.8652
2675	0.8634
2666	0.8598
2657	0.8542
2648	0.8524
2639	0.8573
2630	0.8594
2621	0.8608
2612	0.8606
2603	0.8604
2594	0.8604
2585	0.8616
2576	0.863
2567	0.8644
2558	0.8649
2549	0.8636
2540	0.8618
2531	0.8614
2522	0.8623
2513	0.8635
2504	0.8642
2495	0.8589
2486	0.8531
2477	0.8514
2468	0.8508
2459	0.8454
2450	0.8415
2441	0.8416
2432	0.846
2423	0.8499
2414	0.8527
2405	0.852
2396	0.851
2387	0.8501
2378	0.8503
2369	0.851
2360	0.8525
2351	0.8555
2342	0.8589
2333	0.8631
2324	0.8675
2315	0.8745
2306	0.8834
2297	0.8824
2288	0.8684
2279	0.8554
2270	0.8325
2261	0.8213
2252	0.8341
2243	0.8525
2234	0.8532
2225	0.8509
2216	0.8505
2207	0.8584
2198	0.8668
2189	0.8673
2180	0.8678
2171	0.8681
2162	0.8682
2153	0.8644
2144	0.8671
2135	0.8702
2126	0.8707
2117	0.8709
2108	0.8715
2099	0.872
2090	0.8725
2081	0.8725
2072	0.872
2063	0.871
2054	0.8697
2045	0.8688
2036	0.8687
2027	0.8687
2018	0.8694
2009	0.8701
2000	0.871
1991	0.877
1982	0.8764
1973	0.8761
1964	0.8723
1955	0.8742
1946	0.8797
1937	0.8833
1928	0.8842
1919	0.8821
1910	0.8808
1901	0.8788
1892	0.8778
1883	0.8765
1874	0.8773
1865	0.8837
1856	0.8817
1847	0.8777
1838	0.8752
1829	0.8797
1820	0.884
1811	0.8841
1802	0.8811
1793	0.8768
1784	0.8858
1775	0.8899
1766	0.8912
1757	0.8917
1748	0.8912
1739	0.8866
1730	0.8851
1721	0.8868
1712	0.8845
1703	0.8812
1694	0.8768
1685	0.8713
1676	0.8715
1667	0.8739
1658	0.8755
1649	0.8741
1640	0.872
1631	0.869
1622	0.8663
1613	0.8644
1604	0.8634
1595	0.8675
1586	0.8711
1577	0.8681
1568	0.8634
1559	0.8632
1550	0.8644
1541	0.8623
1532	0.8594
1523	0.8536
1514	0.8507
1505	0.8477
1496	0.8425
1487	0.8328
1478	0.7865
1469	0.6298
1460	0.4089
1451	0.1823
1442	0.2101
1433	0.1825
1424	0.3792
1415	0.6396
1406	0.6875
1397	0.7117
1388	0.4976
1379	0.0541
1370	0.6844
1361	0.7926
1352	0.8015
1343	0.7839
1334	0.7397
1325	0.7742
1316	0.4887
1307	0.7778
1298	0.8188
1289	0.8245
1280	0.8209
1271	0.8056
1262	0.7796
1253	0.6468
1244	0.2567
1235	0.3268
1226	0.2954
1217	0.2547
1208	0.2542
1199	0.5667
1190	0.6795
1181	0.7001
1172	0.5307
1163	0.0167
1154	0.0256
1145	0.3493
1136	0.6184
1127	0.6605
1118	0.6121
1109	0.7712
1100	0.7234
1091	0.7801
1082	0.8011
1073	0.8054
1064	0.7937
1055	0.7044
1046	0.4632
1037	0.2848
1028	0.5972
1019	0.6992
1010	0.5062
1001	0.0464
992	0.4528
983	0.5721
974	0.7884
965	0.8356
956	0.8523
947	0.8588
938	0.8575
929	0.8524
920	0.8513
911	0.7194
902	0.4862
893	0.5341
884	0.8068
875	0.8627
866	0.8571
857	0.7115
848	0.7083
839	0.7903
830	0.8449
821	0.8748
812	0.8941
803	0.9056
794	0.9086
785	0.9107
776	0.9087
767	0.9041
758	0.8791
749	0.8791
740	0.9053
731	0.9152
722	0.9154
713	0.9115
704	0.9098
695	0.908
686	0.9018
677	0.8805
668	0.7667
659	0.6485
650	0.1918
641	0.7595
632	0.8434
623	0.8633
614	0.8668
605	0.8539
596	0.8031
587	0.6253
578	0.3706
569	0.0009
560	0.1325
551	0.5358
542	0.5768
533	0.7112
524	0.7288
515	0.8033
506	0.8321
497	0.8411
488	0.843
479	0.8354
470	0.8176
461	0.6881
452	0.7951
443	0.7968
434	0.7893
425	0.7791
416	0.7691
407	0.7594
398	0.7455
389	0.7358
