Infrared Spectrum: Trichloroacetonitrile
Formula: C 2 Cl 3 N
CAS: 545-06-2
State: gas
Instrument: HP-GC/MS/IRD
Origin: NIST Mass Spectrometry Data Center
1/CM	ABSORBANCE
550	0.0001012
562	0.0001716
574	0.0002244
586	0.0001452
598	9.24e-05
610	0.0001496
622	0.0002464
634	0.0004048
646	0.0004356
658	0.0003784
670	5.72e-05
682	0.0001188
694	0.000176
706	0.0001804
718	0.00044
730	0.0008888
742	0.0016676
754	0.0026884
766	0.0061864
778	0.0181896
790	0.0428824
802	0.0233552
814	0.003146
826	0.0007656
838	0.000308
850	0.0001452
862	0.0002068
874	0.0002464
886	0.000352
898	0.0001716
910	0.0001364
922	0.0003256
934	0.0005016
946	0.0009548
958	0.0014168
970	0.00176
982	0.0009724
994	0.0003916
1006	0.0007832
1018	0.0027764
1030	0.0045628
1042	0.0031944
1054	0.0008008
1066	0.0002112
1078	0.0001628
1090	0.0002156
1102	0.00022
1114	0.0001496
1126	0.0001276
1138	8.8e-05
1150	6.6e-05
1162	3.52e-05
1174	0.000132
1186	2.64e-05
1198	7.04e-05
1210	5.72e-05
1222	9.68e-05
1234	9.24e-05
1246	9.24e-05
1258	8.8e-05
1270	0.0001584
1282	0.0001012
1294	2.2e-05
1306	2.2e-05
1318	4.84e-05
1330	0
1342	3.96e-05
1354	2.64e-05
1366	5.28e-05
1378	4.84e-05
1390	4.84e-05
1402	6.6e-05
1414	4.4e-05
1426	8.8e-05
1438	7.92e-05
1450	9.24e-05
1462	0.00011
1474	0.0001364
1486	9.24e-05
1498	0.000132
1510	0.0001232
1522	0.0001628
1534	0.000132
1546	0.0001452
1558	0.0001936
1570	0.0002068
1582	0.0002112
1594	0.0001672
1606	0.0001276
1618	0.0001188
1630	7.92e-05
1642	7.92e-05
1654	7.92e-05
1666	7.92e-05
1678	7.92e-05
1690	9.24e-05
1702	5.28e-05
1714	4.4e-05
1726	4.4e-06
1738	4.4e-05
1750	1.76e-05
1762	5.28e-05
1774	3.52e-05
1786	6.16e-05
1798	8.36e-05
1810	8.8e-05
1822	0.0001364
1834	0.0001232
1846	8.36e-05
1858	6.6e-05
1870	5.72e-05
1882	7.92e-05
1894	3.52e-05
1906	4.84e-05
1918	6.16e-05
1930	5.72e-05
1942	5.72e-05
1954	3.96e-05
1966	7.04e-05
1978	3.52e-05
1990	6.16e-05
2002	5.28e-05
2014	4.84e-05
2026	4.84e-05
2038	7.48e-05
2050	3.96e-05
2062	9.24e-05
2074	0.0001012
2086	0.0001144
2098	0.0001012
2110	6.16e-05
2122	4.84e-05
2134	3.52e-05
2146	5.72e-05
2158	7.48e-05
2170	6.6e-05
2182	9.68e-05
2194	6.6e-05
2206	9.68e-05
2218	0.0003168
2230	0.0008228
2242	0.001584
2254	0.0015884
2266	0.0005852
2278	7.92e-05
2290	0.0001144
2302	9.24e-05
2314	5.28e-05
2326	5.28e-05
2338	7.48e-05
2350	5.72e-05
2362	0.0001144
2374	9.68e-05
2386	0.0001804
2398	0.0001848
2410	0.0001232
2422	6.16e-05
2434	8.8e-05
2446	8.8e-05
2458	3.08e-05
2470	8.8e-05
2482	6.16e-05
2494	7.04e-05
2506	7.92e-05
2518	7.92e-05
2530	5.72e-05
2542	4.4e-05
2554	7.92e-05
2566	6.6e-05
2578	3.52e-05
2590	6.16e-05
2602	5.28e-05
2614	5.72e-05
2626	4.4e-05
2638	6.6e-05
2650	5.72e-05
2662	5.28e-05
2674	8.36e-05
2686	7.92e-05
2698	5.28e-05
2710	7.48e-05
2722	3.52e-05
2734	6.6e-05
2746	3.96e-05
2758	7.48e-05
2770	4.4e-05
2782	5.28e-05
2794	3.52e-05
2806	6.16e-05
2818	1.76e-05
2830	9.24e-05
2842	0.0001144
2854	7.92e-05
2866	0.000132
2878	0
2890	8.36e-05
2902	9.24e-05
2914	0.0001496
2926	0.0001056
2938	8.36e-05
2950	0.0001012
2962	8.36e-05
2974	8.36e-05
2986	0.0001012
2998	7.92e-05
3010	5.72e-05
3022	7.92e-05
3034	6.16e-05
3046	0.0001276
3058	9.24e-05
3070	5.72e-05
3082	5.72e-05
3094	0.0001232
3106	8.36e-05
3118	9.24e-05
3130	9.24e-05
3142	7.48e-05
3154	0.0001716
3166	0.000132
3178	7.92e-05
3190	0.0001452
3202	7.48e-05
3214	3.08e-05
3226	4.4e-05
3238	4.4e-06
3250	0.0001056
3262	0.0001056
3274	0.0001144
3286	0.0001496
3298	5.28e-05
3310	8.8e-05
3322	8.36e-05
3334	0.0001408
3346	0.0001144
3358	9.24e-05
3370	8.8e-05
3382	0.0001276
3394	0.00011
3406	7.92e-05
3418	5.72e-05
3430	2.64e-05
3442	0.0001496
3454	0.0001452
3466	2.64e-05
3478	0.0001276
3490	5.28e-05
3502	9.24e-05
3514	0.0001232
3526	0.0001276
3538	0.0001848
3550	0.0001012
3562	8.36e-05
3574	7.48e-05
3586	0.0001408
3598	0.0001144
3610	7.92e-05
3622	0.0001496
3634	0.000132
3646	0.0001848
3658	0.0001276
3670	0.0001804
3682	8.36e-05
3694	0.0001188
3706	4.84e-05
3718	0.0001012
3730	0.0001188
3742	0.0001188
3754	0.0001276
3766	0.0001452
3778	3.52e-05
3790	0.0001804
3802	0.0001364
3814	0.0001672
3826	0.00022
3838	0.0001584
