Infrared Spectrum: Acetonitrile, trichloro-
Formula: C2 Cl3 N
CAS: 545-06-2
State: GAS (60 mmHg, N2 ADDED, TOTAL PRESSURE 600 mmHg)
Class: COBLENTZ
Instrument: DOW KBr FOREPRISM-GRATING
Instrument parameters: GRATING CHANGED AT 5.0, 7.5, 15.0 MICRON
Sampling: TRANSMISSION
Path length: 5 CM
Resolution: 2
Origin: DOW CHEMICAL COMPANY
1/CM	TRANSMITTANCE
456	0.815
465	0.797
474	0.761
483	0.6629
492	0.296
501	0.6039
510	0.8352
519	0.8413
528	0.837
537	0.8279
546	0.8337
555	0.8429
564	0.8495
573	0.8526
582	0.8554
591	0.8578
600	0.858
609	0.8556
618	0.8501
627	0.8353
636	0.7844
645	0.7867
654	0.8344
663	0.8625
672	0.8799
681	0.8793
690	0.874
699	0.8662
708	0.8567
717	0.8416
726	0.8136
735	0.7488
744	0.6627
753	0.6522
762	0.6401
771	0.5046
780	0.3005
789	0.0035
798	0.0025
807	0.0172
816	0.5804
825	0.812
834	0.8516
843	0.8646
852	0.8665
861	0.865
870	0.856
879	0.8292
888	0.8435
897	0.8636
906	0.869
915	0.8714
924	0.8707
933	0.8609
942	0.827
951	0.7561
960	0.617
969	0.5082
978	0.5223
987	0.7727
996	0.856
1005	0.851
1014	0.7523
1023	0.309
1032	0.1663
1041	0.1677
1050	0.7688
1059	0.8093
1068	0.84
1077	0.8694
1086	0.8757
1095	0.8764
1104	0.8742
1113	0.8694
1122	0.873
1131	0.8726
1140	0.872
1149	0.8769
1158	0.8791
1167	0.8752
1176	0.8655
1185	0.8566
1194	0.8692
1203	0.8748
1212	0.8723
1221	0.8648
1230	0.8774
1239	0.8766
1248	0.8684
1257	0.8574
1266	0.8431
1275	0.8189
1284	0.8199
1293	0.8529
1302	0.8644
1311	0.8687
1320	0.8701
1329	0.8705
1338	0.8705
1347	0.8677
1356	0.8604
1365	0.8593
1374	0.8608
1383	0.8623
1392	0.8636
1401	0.8677
1410	0.8698
1419	0.8638
1428	0.8665
1437	0.8624
1446	0.8585
1455	0.8545
1464	0.8557
1473	0.8572
1482	0.8652
1491	0.8635
1500	0.8618
1509	0.8592
1518	0.861
1527	0.8596
1536	0.8541
1545	0.8558
1554	0.8549
1563	0.8539
1572	0.8373
1581	0.8225
1590	0.8203
1599	0.8277
1608	0.8447
1617	0.8523
1626	0.8652
1635	0.8647
1644	0.868
1653	0.8608
1662	0.8633
1671	0.8606
1680	0.8545
1689	0.8616
1698	0.853
1707	0.8541
1716	0.8531
1725	0.856
1734	0.8482
1743	0.8535
1752	0.8552
1761	0.856
1770	0.856
1779	0.8592
1788	0.8596
1797	0.8605
1806	0.8605
1815	0.8569
1824	0.8359
1833	0.8438
1842	0.8625
1851	0.8647
1860	0.8658
1869	0.8663
1878	0.8666
1887	0.8666
1896	0.8669
1905	0.8674
1914	0.8679
1923	0.8683
1932	0.8688
1941	0.869
1950	0.8698
1959	0.8703
1968	0.8705
1977	0.8708
1986	0.8713
1995	0.8715
2004	0.8707
2013	0.8702
2022	0.8698
2031	0.8693
2040	0.8689
2049	0.8684
2058	0.8681
2067	0.8671
2076	0.8659
2085	0.8644
2094	0.8613
2103	0.8583
2112	0.8633
2121	0.871
2130	0.8729
2139	0.8729
2148	0.8726
2157	0.8721
2166	0.8715
2175	0.8706
2184	0.8694
2193	0.8682
2202	0.867
2211	0.8694
2220	0.8733
2229	0.8713
2238	0.8504
2247	0.7386
2256	0.5124
2265	0.345
2274	0.6605
2283	0.8771
2292	0.8789
2301	0.8802
2310	0.8811
2319	0.8811
2328	0.881
2337	0.8809
2346	0.8798
2355	0.8787
2364	0.8778
2373	0.8767
2382	0.8714
2391	0.8552
2400	0.8415
2409	0.8439
2418	0.8648
2427	0.8766
2436	0.8782
2445	0.878
2454	0.8778
2463	0.8772
2472	0.8765
2481	0.8756
2490	0.8747
2499	0.8738
2508	0.873
2517	0.8737
2526	0.8746
2535	0.8757
2544	0.877
2553	0.8775
2562	0.8778
2571	0.8779
2580	0.8778
2589	0.8777
2598	0.8776
2607	0.8777
2616	0.8778
2625	0.878
2634	0.8781
2643	0.8781
2652	0.8781
2661	0.8782
2670	0.8779
2679	0.8775
2688	0.8772
2697	0.877
2706	0.8769
2715	0.8767
2724	0.8764
2733	0.8761
2742	0.8759
2751	0.8755
2760	0.8752
2769	0.8744
2778	0.8737
2787	0.873
2796	0.8724
2805	0.8719
2814	0.8709
2823	0.8699
2832	0.8685
2841	0.8664
2850	0.8622
2859	0.8596
2868	0.86
2877	0.8603
2886	0.86
2895	0.8595
2904	0.859
2913	0.861
2922	0.8535
2931	0.8486
2940	0.8498
2949	0.8522
2958	0.8549
2967	0.8577
2976	0.8606
2985	0.8628
2994	0.8641
3003	0.8648
3012	0.8654
3021	0.8667
3030	0.8623
3039	0.8602
3048	0.8605
3057	0.8597
3066	0.861
3075	0.8634
3084	0.8662
3093	0.868
3102	0.8688
3111	0.8692
3120	0.8696
3129	0.8699
3138	0.8702
3147	0.8702
3156	0.8701
3165	0.87
3174	0.87
3183	0.87
3192	0.8699
3201	0.8698
3210	0.8698
3219	0.8698
3228	0.8698
3237	0.8699
3246	0.8701
3255	0.8702
3264	0.8702
3273	0.8696
3282	0.8693
3291	0.8695
3300	0.8716
3309	0.8756
3318	0.8777
3327	0.8785
3336	0.8792
3345	0.8794
3354	0.8796
3363	0.8794
3372	0.8792
3381	0.879
3390	0.879
3399	0.879
3408	0.8788
3417	0.8781
3426	0.8773
3435	0.8759
3444	0.8746
3453	0.8731
3462	0.8728
3471	0.8748
3480	0.8759
3489	0.8766
3498	0.8771
3507	0.8775
3516	0.8778
3525	0.8778
3534	0.8777
3543	0.8766
3552	0.8743
3561	0.8731
3570	0.8734
3579	0.8745
3588	0.8756
3597	0.8748
3606	0.8703
3615	0.8691
3624	0.8692
3633	0.8697
3642	0.8703
3651	0.8706
3660	0.8708
3669	0.8713
3678	0.8719
3687	0.8725
3696	0.8731
3705	0.8735
3714	0.8731
3723	0.8714
3732	0.8715
3741	0.874
3750	0.8744
3759	0.8747
3768	0.88
3777	0.8778
3786	0.8735
3795	0.8722
