Infrared Spectrum: TRICHLORO ACETONITRILE
Formula: C2 Cl3 N
CAS: 545-06-2
State: SOLUTION (10% CCl4 FOR 5000-1330, 10% CS2 FOR 1330-625 CM^-^1)
Class: COBLENTZ
Instrument: Not specified, most likely a prism, grating, or hybrid spectrometer.
Sampling: TRANSMISSION
Path length: 0.0125 CM, 0.0125 CM
Resolution: 4
Origin: DOW CHEMICAL COMPANY
MICROMETERS	TRANSMITTANCE
2.034	0.9
2.07524	0.9
2.11648	0.9
2.15772	0.903
2.19896	0.903
2.2402	0.903
2.28144	0.905
2.32268	0.909
2.36392	0.909
2.40516	0.91
2.4464	0.909
2.48764	0.909
2.52888	0.909
2.57011	0.909
2.61135	0.91
2.65259	0.91
2.69383	0.909
2.73507	0.915
2.77631	0.912
2.81755	0.912
2.85879	0.912
2.90003	0.917
2.94127	0.917
2.98251	0.917
3.02375	0.915
3.06499	0.915
3.10623	0.915
3.14747	0.914
3.18871	0.914
3.22995	0.915
3.27119	0.915
3.31243	0.912
3.35367	0.907
3.39491	0.903
3.43615	0.915
3.47739	0.912
3.51863	0.921
3.55987	0.924
3.6011	0.922
3.64234	0.922
3.68358	0.927
3.72482	0.927
3.76606	0.929
3.8073	0.929
3.84854	0.929
3.88978	0.929
3.93102	0.931
3.97226	0.931
4.0135	0.934
4.05474	0.931
4.09598	0.921
4.13722	0.921
4.17846	0.929
4.2197	0.912
4.26094	0.907
4.30218	0.905
4.34342	0.903
4.38466	0.847
4.4259	0.759
4.46714	0.929
4.50838	0.936
4.54962	0.938
4.59086	0.934
4.6321	0.938
4.67333	0.945
4.71457	0.946
4.75581	0.943
4.79705	0.933
4.83829	0.939
4.87953	0.939
4.92077	0.938
4.96201	0.931
5.00325	0.936
5.04449	0.939
5.08573	0.946
5.12697	0.946
5.16821	0.946
5.20945	0.946
5.25069	0.946
5.29193	0.945
5.33317	0.939
5.37441	0.934
5.41565	0.929
5.45689	0.926
5.49813	0.931
5.53937	0.939
5.58061	0.946
5.62185	0.941
5.66309	0.941
5.70432	0.938
5.74556	0.931
5.7868	0.931
5.82804	0.936
5.86928	0.936
5.91052	0.938
5.95176	0.938
5.993	0.934
6.03424	0.938
6.07548	0.926
6.11672	0.905
6.15796	0.866
6.1992	0.804
6.24044	0.699
6.28168	0.629
6.32292	0.596
6.36416	0.547
6.4054	0.478
6.44664	0.463
6.48788	0.524
6.52912	0.526
6.57036	0.509
6.6116	0.703
6.65284	0.816
6.69408	0.879
6.73531	0.898
6.77655	0.909
6.81779	0.915
6.85903	0.926
6.90027	0.929
6.94151	0.929
6.98275	0.931
7.02399	0.933
7.06523	0.931
7.10647	0.931
7.14771	0.929
7.18895	0.929
7.23019	0.934
7.27143	0.936
7.31267	0.938
7.35391	0.946
7.39515	0.946
7.43639	0.945
7.47763	0.946
7.51887	0.945
7.56011	0.938
7.60135	0.921
7.64259	0.917
7.68383	0.919
7.72507	0.915
7.7663	0.914
7.80754	0.898
7.84878	0.888
7.89002	0.893
7.93126	0.903
7.9725	0.909
8.01374	0.912
8.05498	0.909
8.09622	0.907
8.13746	0.907
8.1787	0.907
8.21994	0.907
8.26118	0.905
8.30242	0.903
8.34366	0.897
8.3849	0.895
8.42614	0.893
8.46738	0.895
8.50862	0.897
8.54986	0.897
8.5911	0.897
8.63234	0.895
8.67358	0.895
8.71482	0.891
8.75606	0.89
8.7973	0.891
8.83853	0.891
8.87977	0.888
8.92101	0.888
8.96225	0.891
9.00349	0.893
9.04473	0.893
9.08597	0.891
9.12721	0.893
9.16845	0.897
9.20969	0.898
9.25093	0.895
9.29217	0.895
9.33341	0.888
9.37465	0.885
9.41589	0.874
9.45713	0.852
9.49837	0.807
9.53961	0.783
9.58085	0.761
9.62209	0.694
9.66333	0.518
9.70457	0.269
9.74581	0.207
9.78705	0.646
9.82829	0.809
9.86952	0.843
9.91076	0.854
9.952	0.873
9.99324	0.878
10.0345	0.874
10.0757	0.866
10.117	0.838
10.1582	0.785
10.1994	0.694
10.2407	0.59
10.2819	0.578
10.3232	0.646
10.3644	0.71
10.4056	0.768
10.4469	0.813
10.4881	0.845
10.5294	0.871
10.5706	0.876
10.6118	0.879
10.6531	0.883
10.6943	0.89
10.7356	0.891
10.7768	0.895
10.818	0.895
10.8593	0.895
10.9005	0.895
10.9418	0.893
10.983	0.89
11.0242	0.888
11.0655	0.89
11.1067	0.885
11.148	0.874
11.1892	0.869
11.2304	0.854
11.2717	0.835
11.3129	0.818
11.3542	0.795
11.3954	0.783
11.4366	0.763
11.4779	0.744
11.5191	0.732
11.5603	0.722
11.6016	0.71
11.6428	0.704
11.6841	0.704
11.7253	0.713
11.7665	0.735
11.8078	0.766
11.849	0.794
11.8903	0.813
11.9315	0.825
11.9727	0.83
12.014	0.833
12.0552	0.826
12.0965	0.821
12.1377	0.807
12.1789	0.794
12.2202	0.766
12.2614	0.747
12.3027	0.723
12.3439	0.694
12.3851	0.646
12.4264	0.595
12.4676	0.519
12.5089	0.427
12.5501	0.272
12.5913	0.128
12.6326	0.024
12.6738	0
12.7151	0
12.7563	0
12.7975	0
12.8388	0
12.88	0.018
12.9213	0.068
12.9625	0.15
13.0037	0.224
13.045	0.272
13.0862	0.31
13.1275	0.351
13.1687	0.411
13.2099	0.468
13.2512	0.506
13.2924	0.528
13.3337	0.533
13.3749	0.543
13.4161	0.564
13.4574	0.593
13.4986	0.636
13.5398	0.694
13.5811	0.74
13.6223	0.783
13.6636	0.811
13.7048	0.826
13.746	0.84
13.7873	0.849
13.8285	0.852
13.8698	0.854
13.911	0.855
13.9522	0.854
13.9935	0.855
14.0347	0.852
14.076	0.854
14.1172	0.854
14.1584	0.855
14.1997	0.857
14.2409	0.854
14.2822	0.854
14.3234	0.85
14.3646	0.85
14.4059	0.847
14.4471	0.843
14.4884	0.842
14.5296	0.842
14.5708	0.842
14.6121	0.84
14.6533	0.837
14.6946	0.833
14.7358	0.831
14.777	0.825
14.8183	0.823
14.8595	0.816
14.9008	0.804
14.942	0.802
14.9832	0.801
15.0245	0.797
15.0657	0.789
15.107	0.777
15.1482	0.771
15.1894	0.761
15.2307	0.753
15.2719	0.744
15.3132	0.737
15.3544	0.732
15.3956	0.727
15.4369	0.725
15.4781	0.725
15.5194	0.725
15.5606	0.725
15.6018	0.727
15.6431	0.727
15.6843	0.727
15.7255	0.727
15.7668	0.728
15.808	0.727
15.8493	0.727
15.8905	0.727
