Infrared Spectrum: 2,3-DICHLORO-1-PROPANOL
Formula: C3 H6 Cl2 O
CAS: 616-23-9
State: LIQUID
Class: COBLENTZ
Instrument: PERKIN-ELMER
Sampling: TRANSMISSION
Path length: 0.0015 CM
Resolution: 4
Origin: STANDARD OIL OF OHIO
MICROMETERS	TRANSMITTANCE
2.027	0.984
2.06086	0.981
2.09471	0.974
2.12857	0.974
2.16242	0.976
2.19628	0.977
2.23013	0.981
2.26399	0.964
2.29784	0.957
2.3317	0.96
2.36555	0.959
2.39941	0.962
2.43327	0.964
2.46712	0.965
2.50098	0.96
2.53483	0.954
2.56869	0.957
2.60254	0.96
2.6364	0.964
2.67025	0.967
2.70411	0.96
2.73796	0.931
2.77182	0.658
2.80568	0.455
2.83953	0.372
2.87339	0.248
2.90724	0.132
2.9411	0.107
2.97495	0.086
3.00881	0.103
3.04266	0.149
3.07652	0.255
3.11037	0.377
3.14423	0.472
3.17809	0.612
3.21194	0.676
3.2458	0.734
3.27965	0.761
3.31351	0.761
3.34736	0.656
3.38122	0.442
3.41507	0.486
3.44893	0.559
3.48278	0.581
3.51664	0.698
3.55049	0.763
3.58435	0.802
3.61821	0.829
3.65206	0.84
3.68592	0.852
3.71977	0.872
3.75363	0.88
3.78748	0.886
3.82134	0.887
3.85519	0.891
3.88905	0.899
3.9229	0.903
3.95676	0.911
3.99062	0.916
4.02447	0.916
4.05833	0.92
4.09218	0.92
4.12604	0.92
4.15989	0.925
4.19375	0.931
4.2276	0.931
4.26146	0.933
4.29531	0.937
4.32917	0.942
4.36303	0.945
4.39688	0.948
4.43074	0.95
4.46459	0.952
4.49845	0.957
4.5323	0.959
4.56616	0.959
4.60001	0.959
4.63387	0.955
4.66772	0.954
4.70158	0.952
4.73544	0.948
4.76929	0.945
4.80315	0.943
4.837	0.947
4.87086	0.95
4.90471	0.955
4.93857	0.957
4.97242	0.957
5.00628	0.959
5.04013	0.959
5.07399	0.959
5.10785	0.955
5.1417	0.959
5.17556	0.962
5.20941	0.962
5.24327	0.964
5.27712	0.964
5.31098	0.965
5.34483	0.965
5.37869	0.967
5.41254	0.965
5.4464	0.962
5.48026	0.96
5.51411	0.96
5.54797	0.962
5.58182	0.964
5.61568	0.962
5.64953	0.959
5.68339	0.957
5.71724	0.955
5.7511	0.95
5.78495	0.947
5.81881	0.945
5.85267	0.945
5.88652	0.947
5.92038	0.947
5.95423	0.948
5.98809	0.943
6.02194	0.938
6.0558	0.933
6.08965	0.928
6.12351	0.923
6.15736	0.92
6.19122	0.92
6.22507	0.921
6.25893	0.923
6.29279	0.925
6.32664	0.926
6.3605	0.928
6.39435	0.925
6.42821	0.923
6.46206	0.921
6.49592	0.918
6.52977	0.909
6.56363	0.903
6.59748	0.891
6.63134	0.874
6.6652	0.852
6.69905	0.821
6.73291	0.777
6.76676	0.704
6.80062	0.53
6.83447	0.45
6.86833	0.392
6.90218	0.391
6.93604	0.345
6.96989	0.302
7.00375	0.318
7.03761	0.406
7.07146	0.465
7.10532	0.474
7.13917	0.465
7.17303	0.443
7.20688	0.438
7.24074	0.445
7.27459	0.474
7.30845	0.496
7.3423	0.513
7.37616	0.537
7.41002	0.554
7.44387	0.535
7.47773	0.517
7.51158	0.513
7.54544	0.513
7.57929	0.52
7.61315	0.532
7.647	0.523
7.68086	0.494
7.71471	0.423
7.74857	0.397
7.78243	0.421
7.81628	0.454
7.85014	0.489
7.88399	0.522
7.91785	0.515
7.9517	0.471
7.98556	0.431
8.01941	0.421
8.05327	0.42
8.08712	0.43
8.12098	0.418
8.15484	0.411
8.18869	0.455
8.22255	0.465
8.2564	0.474
8.29026	0.5
8.32411	0.542
8.35797	0.566
8.39182	0.603
8.42568	0.634
8.45953	0.661
8.49339	0.664
8.52725	0.642
8.5611	0.595
8.59496	0.588
8.62881	0.625
8.66267	0.69
8.69652	0.727
8.73038	0.756
8.76423	0.77
8.79809	0.777
8.83194	0.763
8.8658	0.721
8.89965	0.627
8.93351	0.513
8.96737	0.404
9.00122	0.331
9.03508	0.306
9.06893	0.285
9.10279	0.268
9.13664	0.255
9.1705	0.244
9.20435	0.251
9.23821	0.261
9.27206	0.253
9.30592	0.207
9.33978	0.154
9.37363	0.112
9.40749	0.073
9.44134	0.052
9.4752	0.047
9.50905	0.064
9.54291	0.108
9.57676	0.153
9.61062	0.204
9.64447	0.224
9.67833	0.236
9.71219	0.25
9.74604	0.258
9.7799	0.273
9.81375	0.331
9.84761	0.403
9.88146	0.465
9.91532	0.506
9.94917	0.522
9.98303	0.54
10.0169	0.561
10.0507	0.552
10.0846	0.488
10.1185	0.396
10.1523	0.328
10.1862	0.285
10.22	0.28
10.2539	0.294
10.2877	0.323
10.3216	0.406
10.3554	0.482
10.3893	0.585
10.4231	0.661
10.457	0.712
10.4909	0.743
10.5247	0.755
10.5586	0.758
10.5924	0.744
10.6263	0.704
10.6601	0.62
10.694	0.431
10.7278	0.321
10.7617	0.28
10.7956	0.287
10.8294	0.323
10.8633	0.394
10.8971	0.498
10.931	0.61
10.9648	0.678
10.9987	0.704
11.0325	0.712
11.0664	0.712
11.1003	0.712
11.1341	0.714
11.168	0.712
11.2018	0.714
11.2357	0.712
11.2695	0.702
11.3034	0.693
11.3372	0.697
11.3711	0.717
11.405	0.753
11.4388	0.77
11.4727	0.784
11.5065	0.792
11.5404	0.794
11.5742	0.789
11.6081	0.782
11.6419	0.784
11.6758	0.789
11.7097	0.794
11.7435	0.806
11.7774	0.814
11.8112	0.823
11.8451	0.833
11.8789	0.843
11.9128	0.853
11.9466	0.853
11.9805	0.855
12.0144	0.858
12.0482	0.86
12.0821	0.86
12.1159	0.86
12.1498	0.857
12.1836	0.857
12.2175	0.857
12.2513	0.855
12.2852	0.855
12.3191	0.853
12.3529	0.852
12.3868	0.848
12.4206	0.843
12.4545	0.838
12.4883	0.835
12.5222	0.829
12.556	0.823
12.5899	0.814
12.6238	0.802
12.6576	0.794
12.6915	0.782
12.7253	0.765
12.7592	0.751
12.793	0.734
12.8269	0.714
12.8607	0.7
12.8946	0.69
12.9285	0.681
12.9623	0.673
12.9962	0.664
13.03	0.656
13.0639	0.63
13.0977	0.591
13.1316	0.547
13.1654	0.501
13.1993	0.464
13.2332	0.42
13.267	0.379
13.3009	0.348
13.3347	0.319
13.3686	0.29
13.4024	0.263
13.4363	0.226
13.4701	0.202
13.504	0.19
13.5379	0.183
13.5717	0.188
13.6056	0.202
13.6394	0.231
13.6733	0.265
13.7071	0.302
13.741	0.329
13.7748	0.355
13.8087	0.369
13.8425	0.374
13.8764	0.374
13.9103	0.372
13.9441	0.375
13.978	0.382
14.0118	0.399
14.0457	0.414
14.0795	0.435
14.1134	0.45
14.1472	0.459
14.1811	0.459
14.215	0.459
14.2488	0.45
14.2827	0.431
14.3165	0.409
14.3504	0.38
14.3842	0.348
14.4181	0.312
14.4519	0.275
14.4858	0.236
14.5197	0.202
14.5535	0.183
14.5874	0.159
14.6212	0.144
14.6551	0.13
14.6889	0.12
14.7228	0.113
14.7566	0.108
14.7905	0.108
14.8244	0.108
14.8582	0.107
14.8921	0.103
14.9259	0.112
14.9598	0.122
14.9936	0.156
15.0275	0.187
15.0613	0.21
15.0952	0.244
15.1291	0.267
15.1629	0.289
15.1968	0.316
15.2306	0.335
15.2645	0.353
15.2983	0.365
15.3322	0.377
15.366	0.389
15.3999	0.408
