Infrared Spectrum: GLYCERYL DICHLOROHYDRIN
Formula: C3 H6 Cl2 O
CAS: 616-23-9
State: SOLUTION (10% CCl4 FOR 2.5-7.5, 10% CS2 FOR 7.5-16 MICRON)
Class: COBLENTZ
Instrument: Not specified, most likely a prism, grating, or hybrid spectrometer.
Sampling: TRANSMISSION
Path length: 0.01 CM, 0.01 CM
Resolution: 4
Origin: DOW CHEMICAL COMPANY
MICROMETERS	TRANSMITTANCE
2.013	0.852
2.05308	0.852
2.09317	0.854
2.13325	0.859
2.17334	0.864
2.21342	0.852
2.25351	0.854
2.29359	0.865
2.33368	0.864
2.37376	0.867
2.41384	0.872
2.45393	0.874
2.49401	0.872
2.5341	0.875
2.57418	0.879
2.61427	0.88
2.65435	0.867
2.69444	0.804
2.73452	0.64
2.77461	0.549
2.81469	0.589
2.85477	0.47
2.89486	0.433
2.93494	0.425
2.97503	0.47
3.01511	0.566
3.0552	0.652
3.09528	0.731
3.13537	0.801
3.17545	0.829
3.21553	0.85
3.25562	0.864
3.2957	0.854
3.33579	0.713
3.37587	0.591
3.41596	0.74
3.45604	0.708
3.49613	0.842
3.53621	0.869
3.5763	0.885
3.61638	0.885
3.65646	0.895
3.69655	0.908
3.73663	0.91
3.77672	0.912
3.8168	0.917
3.85689	0.923
3.89697	0.925
3.93706	0.927
3.97714	0.932
4.01722	0.94
4.05731	0.942
4.09739	0.945
4.13748	0.947
4.17756	0.95
4.21765	0.948
4.25773	0.942
4.29782	0.935
4.3379	0.937
4.37799	0.945
4.41807	0.956
4.45815	0.961
4.49824	0.963
4.53832	0.963
4.57841	0.961
4.61849	0.961
4.65858	0.963
4.69866	0.961
4.73875	0.96
4.77883	0.956
4.81891	0.961
4.859	0.961
4.89908	0.96
4.93917	0.961
4.97925	0.963
5.01934	0.963
5.05942	0.963
5.09951	0.963
5.13959	0.963
5.17967	0.965
5.21976	0.966
5.25984	0.965
5.29993	0.965
5.34001	0.961
5.3801	0.961
5.42018	0.961
5.46027	0.963
5.50035	0.963
5.54044	0.965
5.58052	0.965
5.6206	0.971
5.66069	0.966
5.70077	0.96
5.74086	0.958
5.78094	0.955
5.82103	0.942
5.86111	0.927
5.9012	0.923
5.94128	0.927
5.98136	0.932
6.02145	0.915
6.06153	0.897
6.10162	0.874
6.1417	0.852
6.18179	0.826
6.22187	0.753
6.26196	0.69
6.30204	0.663
6.34213	0.622
6.38221	0.556
6.42229	0.511
6.46238	0.552
6.50246	0.635
6.54255	0.682
6.58263	0.73
6.62272	0.791
6.6628	0.822
6.70289	0.844
6.74297	0.832
6.78305	0.738
6.82314	0.653
6.86322	0.64
6.90331	0.6
6.94339	0.602
6.98348	0.655
7.02356	0.725
7.06365	0.726
7.10373	0.683
7.14382	0.624
7.1839	0.587
7.22398	0.592
7.26407	0.67
7.30415	0.685
7.34424	0.69
7.38432	0.733
7.42441	0.75
7.46449	0.74
7.50458	0.733
7.54466	0.71
7.58474	0.738
7.62483	0.746
7.66491	0.736
7.705	0.678
7.74508	0.66
7.78517	0.662
7.82525	0.683
7.86534	0.711
7.90542	0.723
7.94551	0.693
7.98559	0.667
8.02567	0.612
8.06576	0.609
8.10584	0.605
8.14593	0.556
8.18601	0.592
8.2261	0.677
8.26618	0.695
8.30627	0.716
8.34635	0.741
8.38643	0.761
8.42652	0.774
8.4666	0.791
8.50669	0.798
8.54677	0.781
8.58686	0.763
8.62694	0.779
8.66703	0.817
8.70711	0.841
8.74719	0.855
8.78728	0.864
8.82736	0.864
8.86745	0.834
8.90753	0.779
8.94762	0.706
8.9877	0.625
9.02779	0.559
9.06787	0.5
9.10796	0.412
9.14804	0.395
9.18812	0.443
9.22821	0.495
9.26829	0.508
9.30838	0.491
9.34846	0.438
9.38855	0.321
9.42863	0.22
9.46872	0.233
9.5088	0.301
9.54888	0.382
9.58897	0.463
9.62905	0.524
9.66914	0.562
9.70922	0.576
9.74931	0.604
9.78939	0.634
9.82948	0.68
9.86956	0.73
9.90965	0.769
9.94973	0.783
9.98981	0.786
10.0299	0.786
10.07	0.776
10.1101	0.718
10.1502	0.652
10.1902	0.581
10.2303	0.534
10.2704	0.5
10.3105	0.447
10.3506	0.47
10.3907	0.61
10.4307	0.72
10.4708	0.779
10.5109	0.816
10.551	0.836
10.5911	0.846
10.6312	0.834
10.6713	0.779
10.7113	0.672
10.7514	0.562
10.7915	0.533
10.8316	0.561
10.8717	0.64
10.9118	0.751
10.9518	0.822
10.9919	0.847
11.032	0.855
11.0721	0.85
11.1122	0.841
11.1523	0.839
11.1923	0.834
11.2324	0.822
11.2725	0.802
11.3126	0.786
11.3527	0.783
11.3928	0.783
11.4329	0.783
11.4729	0.781
11.513	0.773
11.5531	0.754
11.5932	0.736
11.6333	0.72
11.6734	0.716
11.7134	0.723
11.7535	0.745
11.7936	0.761
11.8337	0.794
11.8738	0.822
11.9139	0.846
11.954	0.864
11.994	0.874
12.0341	0.877
12.0742	0.882
12.1143	0.885
12.1544	0.887
12.1945	0.887
12.2345	0.887
12.2746	0.885
12.3147	0.879
12.3548	0.874
12.3949	0.872
12.435	0.867
12.4751	0.864
12.5151	0.862
12.5552	0.857
12.5953	0.854
12.6354	0.844
12.6755	0.839
12.7156	0.832
12.7556	0.821
12.7957	0.809
12.8358	0.804
12.8759	0.802
12.916	0.801
12.9561	0.798
12.9962	0.791
13.0362	0.781
13.0763	0.754
13.1164	0.721
13.1565	0.682
13.1966	0.653
13.2367	0.629
13.2767	0.604
13.3168	0.574
13.3569	0.528
13.397	0.463
13.4371	0.39
13.4772	0.352
13.5172	0.344
13.5573	0.367
13.5974	0.412
13.6375	0.465
13.6776	0.516
13.7177	0.552
13.7578	0.564
13.7978	0.566
13.8379	0.562
13.878	0.559
13.9181	0.557
13.9582	0.562
13.9983	0.567
14.0383	0.574
14.0784	0.579
14.1185	0.579
14.1586	0.572
14.1987	0.554
14.2388	0.541
14.2789	0.514
14.3189	0.491
14.359	0.458
14.3991	0.418
14.4392	0.382
14.4793	0.332
14.5194	0.286
14.5594	0.253
14.5995	0.228
14.6396	0.216
14.6797	0.208
14.7198	0.205
14.7599	0.203
14.8	0.201
14.84	0.203
14.8801	0.206
14.9202	0.221
14.9603	0.248
15.0004	0.278
15.0405	0.302
15.0805	0.319
15.1206	0.331
15.1607	0.341
15.2008	0.35
15.2409	0.359
15.281	0.364
15.3211	0.37
15.3611	0.374
15.4012	0.374
15.4413	0.374
15.4814	0.375
15.5215	0.377
15.5616	0.377
15.6016	0.375
15.6417	0.375
15.6818	0.372
15.7219	0.37
15.762	0.37
15.8021	0.37
15.8422	0.37
15.8822	0.37
15.9223	0.37
