Infrared Spectrum: 2,3-Dichloro-1-propanol
Formula: C3 H6 Cl2 O
CAS: 616-23-9
State: SOLUTION (10% CCl4 FOR 3800-1335, 10% CS2 FOR 1335-450 CM^-^1)
Class: COBLENTZ III
Instrument: DOW KBr FOREPRISM-GRATING
Instrument parameters: BLAZED AT 3.5, 12.0, 20.0 MICRON AND CHANGED AT 5.0, 7.5, 14.9 MICRON
Sampling: TRANSMISSION
Path length: 0.010 CM, 0.011 CM
Resolution: 2
Origin: DOW CHEMICAL COMPANY
1/CM	TRANSMITTANCE
3770.25	0.9207
3761.32	0.9201
3752.38	0.9199
3743.45	0.92
3734.52	0.921
3725.58	0.9199
3716.65	0.9174
3707.72	0.9132
3698.78	0.909
3689.85	0.9052
3680.92	0.8963
3671.98	0.8759
3663.05	0.862
3654.12	0.8552
3645.18	0.8458
3636.25	0.8182
3627.32	0.7197
3618.38	0.68
3609.45	0.6633
3600.52	0.5219
3591.58	0.4797
3582.65	0.5216
3573.72	0.5765
3564.78	0.6266
3555.85	0.6612
3546.91	0.671
3537.98	0.6674
3529.05	0.6506
3520.11	0.6238
3511.18	0.6023
3502.25	0.5764
3493.31	0.5452
3484.38	0.526
3475.45	0.509
3466.51	0.4937
3457.58	0.4806
3448.65	0.4709
3439.71	0.464
3430.78	0.4581
3421.85	0.4546
3412.91	0.4514
3403.98	0.4481
3395.05	0.4487
3386.11	0.4492
3377.18	0.4503
3368.25	0.4537
3359.31	0.4574
3350.38	0.464
3341.45	0.4755
3332.51	0.489
3323.58	0.5047
3314.65	0.5206
3305.71	0.5362
3296.78	0.5565
3287.85	0.5778
3278.91	0.6008
3269.98	0.6238
3261.05	0.6483
3252.11	0.6676
3243.18	0.6849
3234.25	0.7022
3225.31	0.7202
3216.38	0.7454
3207.45	0.7621
3198.51	0.7767
3189.58	0.79
3180.65	0.8012
3171.71	0.8135
3162.78	0.8257
3153.84	0.8384
3144.91	0.8502
3135.98	0.8608
3127.04	0.8688
3118.11	0.8748
3109.18	0.8799
3100.24	0.8844
3091.31	0.8917
3082.38	0.8903
3073.44	0.8942
3064.51	0.8942
3055.58	0.8942
3046.64	0.8946
3037.71	0.9007
3028.78	0.8929
3019.84	0.886
3010.91	0.8783
3001.98	0.8684
2993.04	0.8525
2984.11	0.692
2975.18	0.6305
2966.24	0.5849
2957.31	0.5815
2948.38	0.6001
2939.44	0.5966
2930.51	0.6036
2921.58	0.6658
2912.64	0.7306
2903.71	0.7877
2894.78	0.776
2885.84	0.685
2876.91	0.6348
2867.98	0.7195
2859.04	0.7903
2850.11	0.8147
2841.18	0.8322
2832.24	0.8421
2823.31	0.8507
2814.38	0.8578
2805.44	0.8656
2796.51	0.8719
2787.58	0.8755
2778.64	0.8816
2769.71	0.884
2760.78	0.8856
2751.84	0.8852
2742.91	0.8823
2733.97	0.8796
2725.04	0.8826
2716.11	0.8879
2707.17	0.8922
2698.24	0.8951
2689.31	0.8966
2680.37	0.8977
2671.44	0.8985
2662.51	0.899
2653.57	0.9006
2644.64	0.8995
2635.71	0.8992
2626.77	0.901
2617.84	0.9019
2608.91	0.9035
2599.97	0.9045
2591.04	0.9054
2582.11	0.9063
2573.17	0.907
2564.24	0.9074
2555.31	0.9077
2546.37	0.9084
2537.44	0.9093
2528.51	0.9102
2519.57	0.9111
2510.64	0.9114
2501.71	0.9115
2492.77	0.9116
2483.84	0.9116
2474.91	0.9129
2465.97	0.9129
2457.04	0.9124
2448.11	0.9123
2439.17	0.9115
2430.24	0.9105
2421.31	0.9096
2412.37	0.9092
2403.44	0.9105
2394.51	0.9106
2385.57	0.9122
2376.64	0.9168
2367.71	0.9176
2358.77	0.9107
2349.84	0.911
2340.9	0.9134
2331.97	0.9143
2323.04	0.9174
2314.1	0.9155
2305.17	0.9134
2296.24	0.9128
2287.3	0.9107
2278.37	0.9087
2269.44	0.9112
2260.5	0.9135
2251.57	0.9164
2242.64	0.9173
2233.7	0.9188
2224.77	0.9208
2215.84	0.9209
2206.9	0.9223
2197.97	0.9218
2189.04	0.9199
2180.1	0.9194
2171.17	0.9199
2162.24	0.9184
2153.3	0.9182
2144.37	0.9182
2135.44	0.9182
2126.5	0.9178
2117.57	0.917
2108.64	0.9157
2099.7	0.9153
2090.77	0.9163
2081.84	0.9168
2072.9	0.9169
2063.97	0.9165
2055.04	0.9174
2046.1	0.9159
2037.17	0.9157
2028.24	0.916
2019.3	0.9173
2010.37	0.9178
2001.44	0.9179
1992.5	0.9079
1983.57	0.8979
1974.64	0.8996
1965.7	0.9082
1956.77	0.902
1947.83	0.8995
1938.9	0.9003
1929.97	0.8996
1921.03	0.8995
1912.1	0.8987
1903.17	0.8951
1894.23	0.8931
1885.3	0.8947
1876.37	0.8985
1867.43	0.8991
1858.5	0.8948
1849.57	0.8956
1840.63	0.8959
1831.7	0.8945
1822.77	0.8955
1813.83	0.8972
1804.9	0.8964
1795.97	0.8979
1787.03	0.9001
1778.1	0.901
1769.17	0.902
1760.23	0.9023
1751.3	0.8989
1742.37	0.897
1733.43	0.8968
1724.5	0.8965
1715.57	0.8997
1706.63	0.9018
1697.7	0.8995
1688.77	0.9018
1679.83	0.9034
1670.9	0.9049
1661.97	0.9106
1653.03	0.9175
1644.1	0.9309
1635.17	0.9072
1626.23	0.8908
1617.3	0.8822
1608.37	0.8749
1599.43	0.8736
1590.5	0.839
1581.57	0.8283
1572.63	0.8243
1563.7	0.7996
1554.77	0.7761
1545.83	0.7219
1536.9	0.7593
1527.96	0.7992
1519.03	0.8105
1510.1	0.8167
1501.16	0.8119
1492.23	0.8156
1483.3	0.8301
1474.36	0.8022
1465.43	0.7073
1456.5	0.552
1447.56	0.611
1438.63	0.5863
1429.7	0.5807
1420.76	0.7199
1411.83	0.7247
1402.9	0.7019
1393.96	0.6157
1385.03	0.5883
1376.1	0.6045
1367.16	0.6664
1358.23	0.6609
1349.3	0.6984
1340.36	0.709
1331.43	0.7043
1322.5	0.7023
1313.56	0.7185
1304.63	0.7347
1295.7	0.6981
1286.76	0.6435
1277.83	0.6556
1268.9	0.6974
1259.96	0.72
1251.03	0.675
1242.1	0.6067
1233.16	0.631
1224.23	0.5311
1215.3	0.6708
1206.36	0.6896
1197.43	0.7329
1188.5	0.77
1179.56	0.7814
1170.63	0.8119
1161.7	0.7632
1152.76	0.8223
1143.83	0.8674
1134.89	0.8954
1125.96	0.8847
1117.03	0.7563
1108.09	0.5673
1099.16	0.3443
1090.23	0.4202
1081.29	0.5013
1072.36	0.4612
1063.43	0.1989
1054.49	0.2057
1045.56	0.3851
1036.63	0.5119
1027.69	0.5821
1018.76	0.6499
1009.83	0.7496
1000.89	0.7828
991.96	0.778
983.027	0.6163
974.094	0.4944
965.16	0.484
956.227	0.7465
947.293	0.8478
938.36	0.8343
929.427	0.5296
920.493	0.5748
911.56	0.8336
902.626	0.8715
893.693	0.8735
884.76	0.8519
875.826	0.856
866.893	0.8594
857.959	0.8303
849.026	0.8259
840.093	0.8659
831.159	0.9077
822.226	0.9179
813.292	0.9196
804.359	0.9153
795.425	0.9064
786.492	0.8844
777.559	0.856
768.625	0.8484
759.692	0.7203
750.758	0.6408
741.825	0.356
732.892	0.5516
723.958	0.6669
715.025	0.7118
706.091	0.724
697.158	0.6286
688.225	0.2979
679.291	0.2612
670.358	0.3594
661.424	0.5685
652.491	0.6877
643.558	0.7214
634.624	0.7132
625.691	0.7364
616.757	0.7573
607.824	0.7535
598.891	0.6957
589.957	0.6365
581.024	0.747
572.09	0.7197
563.157	0.7318
554.223	0.7716
545.29	0.794
536.357	0.8002
527.423	0.7711
518.49	0.7909
509.556	0.7928
500.623	0.7477
491.69	0.7588
482.756	0.7936
473.823	0.8035
464.889	0.8021
455.956	0.7987
