Infrared Spectrum: 1,1,2-TRICHLOROPROPENE
Formula: C3 H3 Cl3
CAS: 21400-25-9
Class: COBLENTZ
Instrument: Not specified, most likely a prism, grating, or hybrid spectrometer.
Sampling: TRANSMISSION
Path length: 0.0025 CM
Resolution: 4
Origin: W.T. BOLLETER
MICROMETERS	TRANSMITTANCE
14.542	0.818
14.612	0.821
14.6819	0.821
14.7519	0.819
14.8219	0.823
14.8919	0.839
14.9618	0.846
15.0318	0.839
15.1018	0.784
15.1718	0.711
15.2417	0.652
15.3117	0.67
15.3817	0.759
15.4517	0.832
15.5216	0.855
15.5916	0.868
15.6616	0.873
15.7315	0.875
15.8015	0.875
15.8715	0.877
15.9415	0.88
16.0114	0.88
16.0814	0.882
16.1514	0.882
16.2214	0.88
16.2913	0.877
16.3613	0.873
16.4313	0.873
16.5012	0.871
16.5712	0.864
16.6412	0.853
16.7112	0.843
16.7811	0.832
16.8511	0.821
16.9211	0.807
16.9911	0.796
17.061	0.787
17.131	0.778
17.201	0.768
17.271	0.762
17.3409	0.759
17.4109	0.759
17.4809	0.764
17.5508	0.771
17.6208	0.777
17.6908	0.78
17.7608	0.784
17.8307	0.784
17.9007	0.78
17.9707	0.775
18.0407	0.762
18.1106	0.754
18.1806	0.745
18.2506	0.746
18.3206	0.75
18.3905	0.754
18.4605	0.754
18.5305	0.748
18.6004	0.736
18.6704	0.713
18.7404	0.698
18.8104	0.664
18.8803	0.632
18.9503	0.588
19.0203	0.511
19.0903	0.447
19.1602	0.345
19.2302	0.242
19.3002	0.151
19.3701	0.078
19.4401	0.046
19.5101	0.037
19.5801	0.039
19.65	0.048
19.72	0.094
19.79	0.151
19.86	0.26
19.9299	0.361
19.9999	0.467
20.0699	0.547
20.1399	0.622
20.2098	0.664
20.2798	0.704
20.3498	0.734
20.4197	0.754
20.4897	0.771
20.5597	0.787
20.6297	0.796
20.6996	0.802
20.7696	0.805
20.8396	0.811
20.9096	0.819
20.9795	0.823
21.0495	0.828
21.1195	0.832
21.1894	0.836
21.2594	0.839
21.3294	0.848
21.3994	0.85
21.4693	0.852
21.5393	0.852
21.6093	0.853
21.6793	0.855
21.7492	0.857
21.8192	0.857
21.8892	0.857
21.9592	0.859
22.0291	0.859
22.0991	0.859
22.1691	0.86
22.239	0.866
22.309	0.869
22.379	0.873
22.449	0.877
22.5189	0.882
22.5889	0.885
22.6589	0.887
22.7289	0.893
22.7988	0.898
22.8688	0.9
22.9388	0.903
23.0088	0.907
23.0787	0.91
23.1487	0.912
23.2187	0.918
23.2886	0.919
23.3586	0.918
23.4286	0.919
23.4986	0.919
23.5685	0.918
23.6385	0.918
23.7085	0.91
23.7785	0.909
23.8484	0.903
23.9184	0.9
23.9884	0.898
24.0583	0.896
24.1283	0.894
24.1983	0.889
24.2683	0.885
24.3382	0.884
24.4082	0.887
24.4782	0.889
24.5482	0.893
24.6181	0.896
24.6881	0.9
24.7581	0.901
24.8281	0.898
24.898	0.894
24.968	0.891
25.038	0.884
25.1079	0.88
25.1779	0.875
25.2479	0.871
25.3179	0.866
25.3878	0.859
25.4578	0.853
25.5278	0.843
25.5978	0.837
25.6677	0.827
25.7377	0.814
25.8077	0.8
25.8777	0.786
25.9476	0.768
26.0176	0.754
26.0876	0.736
26.1575	0.716
26.2275	0.691
26.2975	0.663
26.3675	0.629
26.4374	0.59
26.5074	0.543
26.5774	0.493
26.6474	0.449
26.7173	0.399
26.7873	0.354
26.8573	0.351
26.9272	0.358
26.9972	0.383
27.0672	0.415
27.1372	0.459
27.2071	0.522
27.2771	0.57
27.3471	0.616
27.4171	0.661
27.487	0.693
27.557	0.721
27.627	0.75
27.697	0.766
27.7669	0.775
27.8369	0.78
27.9069	0.778
27.9768	0.777
28.0468	0.766
28.1168	0.754
28.1868	0.732
28.2567	0.704
28.3267	0.673
28.3967	0.629
28.4667	0.573
28.5366	0.518
28.6066	0.463
28.6766	0.42
28.7466	0.399
28.8165	0.386
28.8865	0.39
28.9565	0.401
29.0264	0.436
29.0964	0.486
29.1664	0.524
29.2364	0.566
29.3063	0.618
29.3763	0.652
29.4463	0.684
29.5163	0.714
29.5862	0.739
29.6562	0.759
29.7262	0.768
29.7961	0.773
29.8661	0.786
29.9361	0.789
30.0061	0.798
30.076	0.805
30.146	0.811
30.216	0.823
30.286	0.825
30.3559	0.825
30.4259	0.821
30.4959	0.814
30.5659	0.809
30.6358	0.809
30.7058	0.809
30.7758	0.809
30.8457	0.807
30.9157	0.805
30.9857	0.802
31.0557	0.8
31.1256	0.8
31.1956	0.8
31.2656	0.8
31.3356	0.798
31.4055	0.798
31.4755	0.796
31.5455	0.787
31.6154	0.78
31.6854	0.771
31.7554	0.762
31.8254	0.754
31.8953	0.752
31.9653	0.75
32.0353	0.737
32.1053	0.721
32.1752	0.707
32.2452	0.698
32.3152	0.688
32.3852	0.673
32.4551	0.659
32.5251	0.65
32.5951	0.645
32.665	0.631
32.735	0.618
32.805	0.604
32.875	0.591
32.9449	0.565
33.0149	0.522
33.0849	0.467
33.1549	0.434
33.2248	0.401
33.2948	0.383
33.3648	0.372
33.4348	0.354
33.5047	0.34
33.5747	0.317
33.6447	0.299
33.7146	0.278
33.7846	0.247
33.8546	0.231
33.9246	0.221
33.9945	0.21
34.0645	0.201
34.1345	0.197
34.2045	0.19
34.2744	0.194
34.3444	0.197
34.4144	0.194
34.4843	0.192
34.5543	0.197
34.6243	0.204
34.6943	0.212
34.7642	0.231
34.8342	0.247
34.9042	0.256
34.9742	0.286
35.0441	0.317
35.1141	0.326
35.1841	0.333
35.2541	0.342
35.324	0.345
35.394	0.345
35.464	0.342
35.5339	0.336
35.6039	0.331
35.6739	0.327
35.7439	0.324
35.8138	0.319
35.8838	0.31
35.9538	0.299
36.0238	0.294
36.0937	0.29
36.1637	0.285
36.2337	0.281
36.3037	0.279
36.3736	0.274
36.4436	0.285
36.5136	0.288
36.5835	0.29
36.6535	0.288
36.7235	0.279
36.7935	0.283
36.8634	0.279
36.9334	0.281
37.0034	0.283
37.0734	0.276
37.1433	0.279
37.2133	0.278
37.2833	0.278
37.3532	0.278
37.4232	0.274
37.4932	0.274
37.5632	0.269
37.6331	0.278
37.7031	0.276
37.7731	0.279
37.8431	0.281
37.913	0.281
37.983	0.283
