Infrared Spectrum: CYCLOPENTANE, IODO-
Formula: C5 H9 I
CAS: 1556-18-9
State: SOLUTION (10% IN CCl4 FOR 3800-1330 AND 10% IN CS2 FOR 1330-400 CM^-^1)
Class: COBLENTZ III
Instrument: BECKMAN IR-9 (GRATING)
Instrument parameters: ORDER CHANGES AT 670, 1200, 2000 CM^-^1
Sampling: TRANSMISSION
Path length: 0.011, 0.011 CM
Resolution: 4
Origin: DOW CHEMICAL COMPANY
1/CM	TRANSMITTANCE
401.796	0.927
410.487	0.923
419.177	0.738
427.868	0.692
436.559	0.708
445.249	0.767
453.94	0.821
462.63	0.859
471.321	0.878
480.012	0.793
488.702	0.9
497.393	0.949
506.084	0.976
514.774	0.994
523.465	1.002
532.156	1.01
540.846	1.016
549.537	1.019
558.227	1.02
566.918	1.019
575.609	1.016
584.299	1.017
592.99	1.017
601.681	1.012
610.371	1.01
619.062	1.004
627.753	0.989
636.443	0.978
645.134	0.952
653.824	0.917
662.515	0.921
671.206	0.915
679.896	0.923
688.587	0.931
697.278	0.925
705.968	0.925
714.659	0.952
723.35	0.975
732.04	0.987
740.731	0.99
749.421	0.995
758.112	0.99
766.803	0.978
775.493	0.975
784.184	0.955
792.875	0.948
801.565	0.957
810.256	0.961
818.946	0.965
827.637	0.968
836.328	0.959
845.018	0.914
853.709	0.834
862.4	0.81
871.09	0.839
879.781	0.851
888.472	0.835
897.162	0.763
905.853	0.862
914.543	0.94
923.234	0.952
931.925	0.914
940.615	0.922
949.306	0.956
957.997	0.974
966.687	0.982
975.378	0.986
984.069	0.986
992.759	0.985
1001.45	0.985
1010.14	0.976
1018.83	0.951
1027.52	0.911
1036.21	0.925
1044.9	0.953
1053.59	0.964
1062.28	0.959
1070.97	0.953
1079.67	0.952
1088.36	0.94
1097.05	0.895
1105.74	0.848
1114.43	0.828
1123.12	0.914
1131.81	0.934
1140.5	0.937
1149.19	0.927
1157.88	0.903
1166.57	0.862
1175.26	0.82
1183.95	0.6719
1192.64	0.217
1201.33	0.517
1210.03	0.676
1218.72	0.714
1227.41	0.819
1236.1	0.881
1244.79	0.899
1253.48	0.904
1262.17	0.899
1270.86	0.882
1279.55	0.84
1288.24	0.828
1296.93	0.873
1305.62	0.874
1314.31	0.768
1323	0.91
1331.69	0.974
1340.38	1.01
1349.08	1.017
1357.77	1.019
1366.46	1.02
1375.15	1.02
1383.84	1.02
1392.53	1.02
1401.22	1.014
1409.91	1.013
1418.6	1.004
1427.29	0.976
1435.98	0.817
1444.67	0.8399
1453.36	0.7341
1462.05	0.902
1470.74	0.921
1479.43	0.917
1488.13	0.936
1496.82	0.915
1505.51	0.874
1514.2	0.814
1522.89	0.767
1531.58	0.71
1540.27	0.6139
1548.96	0.525
1557.65	0.538
1566.34	0.6321
1575.03	0.695
1583.72	0.717
1592.41	0.779
1601.1	0.872
1609.79	0.936
1618.48	0.972
1627.18	1
1635.87	1.012
1644.56	1.02
1653.25	1.019
1661.94	1.024
1670.63	1.029
1679.32	1.029
1688.01	1.028
1696.7	1.028
1705.39	1.024
1714.08	1.019
1722.77	1.023
1731.46	1.024
1740.15	1.013
1748.84	1.013
1757.54	1.023
1766.23	1.029
1774.92	1.027
1783.61	1.029
1792.3	1.031
1800.99	1.031
1809.68	1.025
1818.37	1.029
1827.06	1.028
1835.75	1.024
1844.44	1.023
1853.13	1.027
1861.82	1.025
1870.51	1.028
1879.2	1.029
1887.89	1.031
1896.59	1.028
1905.28	1.028
1913.97	1.029
1922.66	1.032
1931.35	1.032
1940.04	1.032
1948.73	1.032
1957.42	1.032
1966.11	1.031
1974.8	1.031
1983.49	1.029
1992.18	1.024
2000.87	1.026
2009.56	1.0285
2018.25	1.031
2026.94	1.032
2035.64	1.0329
2044.33	1.035
2053.02	1.035
2061.71	1.0344
2070.4	1.035
2079.09	1.0368
2087.78	1.036
2096.47	1.035
2105.16	1.035
2113.85	1.038
2122.54	1.038
2131.23	1.038
2139.92	1.036
2148.61	1.038
2157.3	1.0375
2165.99	1.038
2174.69	1.036
2183.38	1.035
2192.07	1.035
2200.76	1.0352
2209.45	1.0348
2218.14	1.032
2226.83	1.034
2235.52	1.0348
2244.21	1.0337
2252.9	1.028
2261.59	1.024
2270.28	1.0209
2278.97	1.016
2287.66	1.0118
2296.35	1.0089
2305.05	1.01
2313.74	1.013
2322.43	1.013
2331.12	1.013
2339.81	1.013
2348.5	1.013
2357.19	1.016
2365.88	1.019
2374.57	1.02
2383.26	1.024
2391.95	1.0279
2400.64	1.0308
2409.33	1.0319
2418.02	1.032
2426.71	1.034
2435.4	1.035
2444.1	1.035
2452.79	1.0352
2461.48	1.036
2470.17	1.035
2478.86	1.0324
2487.55	1.0348
2496.24	1.034
2504.93	1.034
2513.62	1.0342
2522.31	1.0343
2531	1.035
2539.69	1.0326
2548.38	1.0347
2557.07	1.034
2565.76	1.0326
2574.45	1.032
2583.15	1.0283
2591.84	1.025
2600.53	1.0263
2609.22	1.028
2617.91	1.028
2626.6	1.028
2635.29	1.025
2643.98	1.027
2652.67	1.027
2661.36	1.027
2670.05	1.027
2678.74	1.027
2687.43	1.029
2696.12	1.026
2704.81	1.027
2713.5	1.0261
2722.2	1.024
2730.89	1.023
2739.58	1.023
2748.27	1.021
2756.96	1.02
2765.65	1.02
2774.34	1.02
2783.03	1.0136
2791.72	1.0096
2800.41	1.009
2809.1	1.0097
2817.79	1.004
2826.48	0.9891
2835.17	0.9561
2843.86	0.8336
2852.56	0.7728
2861.25	0.8125
2869.94	0.7727
2878.63	0.567
2887.32	0.7457
2896.01	0.7744
2904.7	0.7283
2913.39	0.7113
2922.08	0.704
2930.77	0.6903
2939.46	0.6425
2948.15	0.5433
2956.84	0.4226
2965.53	0.3451
2974.22	0.3002
2982.91	0.4714
2991.61	0.6864
3000.3	0.8243
3008.99	0.9044
3017.68	0.9411
3026.37	0.961
3035.06	0.975
3043.75	0.982
3052.44	0.989
3061.13	0.994
3069.82	0.998
3078.51	0.998
3087.2	1.0009
3095.89	1.004
3104.58	1.005
3113.27	1.0041
3121.96	1.004
3130.66	1.0023
3139.35	1.002
3148.04	1.002
3156.73	1.005
3165.42	1.005
3174.11	1.005
3182.8	1.006
3191.49	1.008
3200.18	1.009
3208.87	1.008
3217.56	1.0087
3226.25	1.009
3234.94	1.009
3243.63	1.009
3252.32	1.009
3261.01	1.009
3269.71	1.01
3278.4	1.0096
3287.09	1.01
3295.78	1.009
3304.47	1.009
3313.16	1.009
3321.85	1.009
3330.54	1.0096
3339.23	1.009
3347.92	1.009
3356.61	1.009
3365.3	1.009
3373.99	1.009
3382.68	1.01
3391.37	1.009
3400.07	1.009
3408.76	1.009
3417.45	1.009
3426.14	1.009
3434.83	1.009
3443.52	1.009
3452.21	1.0086
3460.9	1.009
3469.59	1.0084
3478.28	1.009
3486.97	1.008
3495.66	1.006
3504.35	1.008
3513.04	1.0074
3521.73	1.005
3530.42	1.004
3539.12	1.0043
3547.81	1.005
3556.5	1.006
3565.19	1.005
3573.88	1.004
3582.57	0.9994
3591.26	0.9686
3599.95	0.9907
3608.64	0.9978
3617.33	0.9781
3626.02	0.994
3634.71	0.997
3643.4	0.9971
3652.09	0.998
3660.78	0.998
3669.47	0.997
3678.17	0.998
3686.86	0.9951
3695.55	0.9949
3704.24	0.997
3712.93	0.9969
3721.62	0.994
3730.31	0.995
3739	0.994
3747.69	0.994
3756.38	0.99
3765.07	0.993
3773.76	0.991
3782.45	0.993
3791.14	0.991
