Infrared Spectrum: 2-Propanol, 1-methoxy-
Formula: C 4 H 10 O 2
CAS: 107-98-2
State: gas
Origin: Sadtler Research Labs Under US-EPA Contract
1/CM	ABSORBANCE
450	0
462	0.0743461
474	0.0952109
486	0.0988083
498	0.117635
510	0.119793
522	0.108881
534	0.0793824
546	0.0678708
558	0.064753
570	0.0565989
582	0.0648729
594	0.0600764
606	0.0576782
618	0.0617552
630	0.0636738
642	0.0693097
654	0.0666716
666	0.0510829
678	0.0489245
690	0.0563591
702	0.0575582
714	0.0577981
726	0.0514427
738	0.0467661
750	0.0528816
762	0.0540808
774	0.0514427
786	0.0597167
798	0.0673911
810	0.0762647
822	0.0883759
834	0.107562
846	0.129266
858	0.125669
870	0.103125
882	0.0859776
894	0.093772
906	0.116196
918	0.152889
930	0.174713
942	0.217882
954	0.300982
966	0.38528
978	0.352664
990	0.24774
1002	0.146174
1014	0.118594
1026	0.147733
1038	0.218841
1050	0.31681
1062	0.388998
1074	0.443438
1086	0.540808
1098	0.719118
1110	1.06495
1122	1.16723
1134	0.977291
1146	0.723435
1158	0.597167
1170	0.485887
1182	0.347268
1194	0.401709
1206	0.393554
1218	0.283354
1230	0.221479
1242	0.284194
1254	0.377366
1266	0.35842
1278	0.259372
1290	0.159364
1302	0.13802
1314	0.189822
1326	0.254695
1338	0.251458
1350	0.188263
1362	0.183707
1374	0.256614
1386	0.329521
1398	0.307697
1410	0.189942
1422	0.135262
1434	0.135502
1446	0.180349
1458	0.255655
1470	0.235029
1482	0.15205
1494	0.0911339
1506	0.0658322
1518	0.0569587
1530	0.0534812
1542	0.050963
1554	0.0512029
1566	0.0504834
1578	0.0502435
1590	0.0483249
1602	0.0490444
1614	0.0486847
1626	0.0455669
1638	0.0450873
1650	0.0440081
1662	0.0418496
1674	0.0412501
1686	0.0408903
1698	0.0393315
1710	0.0394514
1722	0.0392116
1734	0.037173
1746	0.0380124
1758	0.0381323
1770	0.0383722
1782	0.0380124
1794	0.0377726
1806	0.0377726
1818	0.0377726
1830	0.0372929
1842	0.0363336
1854	0.0354942
1866	0.0357341
1878	0.0359739
1890	0.0360938
1902	0.0363336
1914	0.0360938
1926	0.0368133
1938	0.0366934
1950	0.0368133
1962	0.0366934
1974	0.0374129
1986	0.0372929
1998	0.0384921
2010	0.0401709
2022	0.0422094
2034	0.044128
2046	0.0453271
2058	0.0459267
2070	0.0478453
2082	0.0497639
2094	0.048205
2106	0.0448475
2118	0.0423293
2130	0.0408903
2142	0.0389717
2154	0.037173
2166	0.037173
2178	0.037173
2190	0.0364536
2202	0.0362137
2214	0.0362137
2226	0.0365735
2238	0.035854
2250	0.034415
2262	0.0336956
2274	0.0332159
2286	0.0328562
2298	0.0324964
2310	0.0321367
2322	0.031657
2334	0.0321367
2346	0.0341752
2358	0.031657
2370	0.0368133
2382	0.0347748
2394	0.0345349
2406	0.0348947
2418	0.0342951
2430	0.0334557
2442	0.0324964
2454	0.0327362
2466	0.0328562
2478	0.0327362
2490	0.033096
2502	0.0336956
2514	0.034415
2526	0.0345349
2538	0.0347748
2550	0.0350146
2562	0.0365735
2574	0.0375328
2586	0.0396912
2598	0.0424492
2610	0.0443678
2622	0.0444877
2634	0.0458068
2646	0.0479652
2658	0.0492842
2670	0.0497639
2682	0.0510829
2694	0.0539608
2706	0.0583976
2718	0.0630742
2730	0.0679907
2742	0.0719478
2754	0.0779434
2766	0.0862174
2778	0.0946114
2790	0.10972
2802	0.152889
2814	0.283474
2826	0.424972
2838	0.470179
2850	0.432166
2862	0.465143
2874	0.593929
2886	0.777756
2898	0.89599
2910	0.794424
2922	0.701371
2934	0.7166
2946	0.613955
2958	0.479052
2970	0.48289
2982	0.683144
2994	0.644532
3006	0.394754
3018	0.145814
3030	0.0857378
3042	0.06895
3054	0.061995
3066	0.0587574
3078	0.0556396
3090	0.053721
3102	0.0521622
3114	0.048205
3126	0.0449674
3138	0.0420895
3150	0.0404107
3162	0.0400509
3174	0.039931
3186	0.0395713
3198	0.0394514
3210	0.0376527
3222	0.0362137
3234	0.0351345
3246	0.0339354
3258	0.0329761
3270	0.0335756
3282	0.0336956
3294	0.0333358
3306	0.0328562
3318	0.0326163
3330	0.0327362
3342	0.0326163
3354	0.0329761
3366	0.0326163
3378	0.0326163
3390	0.0336956
3402	0.033096
3414	0.0332159
3426	0.0321367
3438	0.0322566
3450	0.0322566
3462	0.0324964
3474	0.0335756
3486	0.034415
3498	0.0360938
3510	0.0377726
3522	0.0377726
3534	0.0359739
3546	0.0342951
3558	0.033096
3570	0.0345349
3582	0.0410102
3594	0.0618751
3606	0.127587
3618	0.253256
3630	0.249299
3642	0.144375
3654	0.091014
3666	0.0754253
3678	0.053721
3690	0.0384921
3702	0.0369332
3714	0.0359739
3726	0.0360938
3738	0.0356142
3750	0.0360938
3762	0.0352544
3774	0.0342951
3786	0.033096
3798	0.0345349
3810	0.035854
3822	0.034415
3834	0.034415
3846	0.0356142
3858	0.0342951
3870	0.0368133
3882	0.0336956
3894	0.034415
3906	0.0341752
3918	0.0332159
3930	0.0368133
3942	0.0364536
3954	0.04137
3966	0.0395713
