Infrared Spectrum: 2-METHYLCYCLOPROPANEMETHANOL
Formula: C5 H10 O
CAS: 6077-72-1
State: LIQUID
Class: COBLENTZ
Instrument: PERKIN-ELMER
Sampling: TRANSMISSION
Path length: CAPILLARY
Resolution: 4
Origin: ABBOTT LABORATORIES - WASHBURN
MICROMETERS	TRANSMITTANCE
2.053	0.895
2.093	0.901
2.133	0.8961
2.17301	0.896
2.21301	0.9009
2.25301	0.908
2.29301	0.9
2.33301	0.8912
2.37302	0.878
2.41302	0.888
2.45302	0.888
2.49302	0.893
2.53302	0.8861
2.57303	0.9009
2.61303	0.896
2.65303	0.901
2.69303	0.898
2.73303	0.9
2.77304	0.8814
2.81304	0.8043
2.85304	0.6858
2.89304	0.4801
2.93304	0.3166
2.97305	0.1447
3.01305	0.1001
3.05305	0.085
3.09305	0.098
3.13305	0.1504
3.17306	0.2195
3.21306	0.325
3.25306	0.4832
3.29306	0.4682
3.33306	0.5162
3.37307	0.22
3.41307	0.326
3.45307	0.156
3.49307	0.19
3.53307	0.1801
3.57308	0.3557
3.61308	0.5938
3.65308	0.6761
3.69308	0.698
3.73308	0.7407
3.77309	0.7708
3.81309	0.7825
3.85309	0.806
3.89309	0.818
3.93309	0.826
3.9731	0.8349
4.0131	0.8498
4.0531	0.855
4.0931	0.846
4.1331	0.8381
4.17311	0.85
4.21311	0.8548
4.25311	0.858
4.29311	0.865
4.33311	0.8611
4.37312	0.851
4.41312	0.8532
4.45312	0.85
4.49312	0.846
4.53312	0.8499
4.57313	0.85
4.61313	0.8462
4.65313	0.841
4.69313	0.843
4.73313	0.8361
4.77314	0.83
4.81314	0.8332
4.85314	0.8209
4.89314	0.813
4.93314	0.8179
4.97315	0.8151
5.01315	0.8211
5.05315	0.8259
5.09315	0.831
5.13315	0.8257
5.17316	0.823
5.21316	0.8357
5.25316	0.835
5.29316	0.8354
5.33316	0.83
5.37317	0.8337
5.41317	0.8358
5.45317	0.833
5.49317	0.833
5.53317	0.833
5.57318	0.8282
5.61318	0.8278
5.65318	0.8302
5.69318	0.828
5.73318	0.8218
5.77319	0.816
5.81319	0.8191
5.85319	0.82
5.89319	0.8156
5.93319	0.8087
5.9732	0.7927
6.0132	0.7743
6.0532	0.77
6.0932	0.77
6.1332	0.7748
6.17321	0.7826
6.21321	0.78
6.25321	0.771
6.29321	0.771
6.33321	0.771
6.37322	0.7739
6.41322	0.7788
6.45322	0.773
6.49322	0.768
6.53322	0.7527
6.57323	0.7501
6.61323	0.731
6.65323	0.7156
6.69323	0.6858
6.73323	0.6217
6.77324	0.5183
6.81324	0.4006
6.85324	0.3525
6.89324	0.2793
6.93324	0.2831
6.97325	0.3501
7.01325	0.3543
7.05325	0.3325
7.09325	0.2961
7.13325	0.3462
7.17326	0.3977
7.21326	0.4115
7.25326	0.3409
7.29326	0.4325
7.33326	0.5083
7.37327	0.5137
7.41327	0.5284
7.45327	0.541
7.49327	0.535
7.53327	0.526
7.57328	0.535
7.61328	0.5397
7.65328	0.5333
7.69328	0.5463
7.73328	0.5726
7.77329	0.5947
7.81329	0.6227
7.85329	0.6415
7.89329	0.6473
7.93329	0.6417
7.9733	0.6171
8.0133	0.5351
8.0533	0.5154
8.0933	0.5564
8.1333	0.6093
8.17331	0.6436
8.21331	0.6612
8.25331	0.6601
8.29331	0.6306
8.33331	0.6159
8.37332	0.6523
8.41332	0.681
8.45332	0.692
8.49332	0.6888
8.53332	0.6676
8.57333	0.6334
8.61333	0.5949
8.65333	0.5388
8.69333	0.5138
8.73333	0.5429
8.77334	0.5864
8.81334	0.6199
8.85334	0.6183
8.89334	0.591
8.93334	0.626
8.97335	0.6549
9.01335	0.6654
9.05335	0.6465
9.09335	0.5967
9.13335	0.5721
9.17336	0.5906
9.21336	0.5372
9.25336	0.4144
9.29336	0.3279
9.33336	0.2752
9.37337	0.1279
9.41337	0.0756
9.45337	0.1297
9.49337	0.2502
9.53337	0.3057
9.57338	0.2763
9.61338	0.1368
9.65338	0.0909
9.69338	0.078
9.73338	0.076
9.77339	0.081
9.81339	0.1002
9.85339	0.1028
9.89339	0.0853
9.93339	0.1097
9.9734	0.186
10.0134	0.2366
10.0534	0.2649
10.0934	0.2661
10.1334	0.2605
10.1734	0.3068
10.2134	0.3747
10.2534	0.4739
10.2934	0.5221
10.3334	0.5614
10.3734	0.5659
10.4134	0.56
10.4534	0.5659
10.4934	0.6151
10.5334	0.6776
10.5734	0.708
10.6134	0.7244
10.6534	0.7356
10.6934	0.7331
10.7334	0.7256
10.7734	0.704
10.8134	0.6528
10.8534	0.613
10.8934	0.6227
10.9334	0.6655
10.9734	0.6879
11.0134	0.7049
11.0535	0.6982
11.0935	0.6734
11.1335	0.6175
11.1735	0.5521
11.2135	0.559
11.2535	0.6212
11.2935	0.6649
11.3335	0.6811
11.3735	0.6808
11.4135	0.6539
11.4535	0.5995
11.4935	0.5131
11.5335	0.4532
11.5735	0.4348
11.6135	0.4998
11.6535	0.621
11.6935	0.6686
11.7335	0.6842
11.7735	0.69
11.8135	0.68
11.8535	0.6942
11.8935	0.7007
11.9335	0.6958
11.9735	0.691
12.0135	0.686
12.0535	0.6948
12.0935	0.7031
12.1335	0.7032
12.1735	0.698
12.2135	0.7
12.2535	0.708
12.2935	0.702
12.3335	0.7
12.3735	0.6891
12.4135	0.6793
12.4535	0.6723
12.4935	0.6414
12.5335	0.6001
12.5735	0.556
12.6135	0.5599
12.6535	0.5878
12.6935	0.601
12.7335	0.5966
12.7735	0.5786
12.8135	0.5567
12.8535	0.5305
12.8935	0.5422
12.9335	0.54
12.9735	0.5231
13.0135	0.4686
13.0536	0.4024
13.0936	0.4355
13.1336	0.4857
13.1736	0.5247
13.2136	0.5573
13.2536	0.5675
13.2936	0.57
13.3336	0.573
13.3736	0.581
13.4136	0.585
13.4536	0.5841
13.4936	0.58
13.5336	0.5808
13.5736	0.5752
13.6136	0.5708
13.6536	0.566
13.6936	0.5631
13.7336	0.5581
13.7736	0.558
13.8136	0.555
13.8536	0.548
13.8936	0.541
13.9336	0.537
13.9736	0.5321
14.0136	0.5342
14.0536	0.531
14.0936	0.5258
14.1336	0.521
14.1736	0.5148
14.2136	0.51
14.2536	0.51
14.2936	0.5
14.3336	0.5015
14.3736	0.4953
14.4136	0.495
14.4536	0.4905
14.4936	0.488
14.5336	0.4841
14.5736	0.4818
14.6136	0.4808
14.6536	0.473
14.6936	0.4775
14.7336	0.465
14.7736	0.468
14.8136	0.4631
14.8536	0.458
14.8936	0.458
14.9336	0.465
14.9736	0.4554
15.0136	0.446
15.0537	0.446
15.0937	0.441
15.1337	0.443
15.1737	0.4346
15.2137	0.4358
15.2537	0.4304
15.2937	0.43
15.3337	0.425
15.3737	0.4259
