Infrared Spectrum: Spiropentane
Formula: C 5 H 8
CAS: 157-40-4
State: gas
Instrument: HP-GC/MS/IRD
Origin: NIST Mass Spectrometry Data Center
1/CM	ABSORBANCE
550	0.0003496
562	0.000171
574	0.0001292
586	0.0002698
598	0.0002432
610	0.0002204
622	0.0003078
634	0.0001292
646	0.0001596
658	0.0002014
670	0.0001178
682	0.0001596
694	0.0002812
706	0.0002128
718	0.0003116
730	0.0002546
742	0.0005016
754	0.0006232
766	0.0009576
778	0.0011324
790	0.0012008
802	0.0011096
814	0.001501
826	0.00342
838	0.0071478
850	0.0098306
862	0.0123006
874	0.0121562
886	0.0090934
898	0.0069996
910	0.0044574
922	0.0018924
934	0.0008322
946	0.0007182
958	0.001691
970	0.0069388
982	0.0102828
994	0.0116394
1006	0.0118446
1018	0.0045752
1030	0.0016758
1042	0.0015694
1054	0.0016112
1066	0.0011248
1078	0.0006726
1090	0.0004332
1102	0.0003344
1114	0.0004142
1126	0.0007866
1138	0.0014896
1150	0.0020026
1162	0.002033
1174	0.001273
1186	0.0005586
1198	0.0003534
1210	0.0002622
1222	0.0001558
1234	7.98e-05
1246	3.8e-06
1258	9.12e-05
1270	6.08e-05
1282	0.000171
1294	0.0002394
1306	0.000589
1318	0.0010754
1330	0.001007
1342	0.0013566
1354	0.0007942
1366	0.000437
1378	0.0004066
1390	0.0007296
1402	0.0012578
1414	0.0018734
1426	0.0022914
1438	0.0023712
1450	0.0018848
1462	0.0013072
1474	0.0007714
1486	0.0004788
1498	0.0003344
1510	0.0002774
1522	0.0002926
1534	0.0003154
1546	0.0004142
1558	0.0004598
1570	0.0003876
1582	0.0004066
1594	0.0004104
1606	0.000437
1618	0.0004522
1630	0.0004332
1642	0.0004066
1654	0.0003686
1666	0.0002926
1678	0.0002432
1690	0.0002508
1702	0.0002546
1714	0.000323
1726	0.0003686
1738	0.0006498
1750	0.0009044
1762	0.001045
1774	0.0008892
1786	0.0006992
1798	0.0005662
1810	0.0004788
1822	0.0004788
1834	0.000551
1846	0.0006194
1858	0.0008132
1870	0.0009918
1882	0.001102
1894	0.0010412
1906	0.0009082
1918	0.0006878
1930	0.0005548
1942	0.0003496
1954	0.0003154
1966	0.0003306
1978	0.000494
1990	0.0007904
2002	0.0012578
2014	0.0017746
2026	0.0021964
2038	0.0024168
2050	0.002109
2062	0.0018734
2074	0.0018734
2086	0.001691
2098	0.0013832
2110	0.001045
2122	0.000551
2134	0.0004332
2146	0.0004902
2158	0.0005814
2170	0.0006878
2182	0.0007714
2194	0.0007068
2206	0.0005776
2218	0.000399
2230	0.0003116
2242	0.000342
2254	0.0003458
2266	0.000342
2278	0.000532
2290	0.0006232
2302	0.0006688
2314	0.000646
2326	0.00057
2338	0.00038
2350	0.000266
2362	0.0001368
2374	0.0001672
2386	0.000247
2398	0.000399
2410	0.0005814
2422	0.0007866
2434	0.0008398
2446	0.0008968
2458	0.0006726
2470	0.0005776
2482	0.000456
2494	0.0003572
2506	0.000209
2518	0.0001292
2530	0.00019
2542	0.0002204
2554	0.000285
2566	0.0002622
2578	0.000247
2590	0.0002394
2602	0.00019
2614	0.0001406
2626	9.5e-05
2638	6.46e-05
2650	3.8e-06
2662	7.22e-05
2674	7.6e-05
2686	5.7e-05
2698	8.74e-05
2710	0.0001292
2722	0.0001406
2734	0.0001254
2746	0.0001406
2758	0.0002356
2770	0.0002736
2782	0.0003534
2794	0.0003382
2806	0.0004218
2818	0.000589
2830	0.0009348
2842	0.0012882
2854	0.0014858
2866	0.0015276
2878	0.0014972
2890	0.0012768
2902	0.0012654
2914	0.001425
2926	0.0023484
2938	0.0041344
2950	0.0075848
2962	0.0122208
2974	0.0191254
2986	0.0288724
2998	0.035454
3010	0.0376238
3022	0.032661
3034	0.0232066
3046	0.0190988
3058	0.0207746
3070	0.0265658
3082	0.0249622
3094	0.0170506
3106	0.009234
3118	0.0031578
3130	0.0008474
3142	0.0004028
3154	0.000304
3166	0.0002736
3178	0.0002698
3190	6.84e-05
3202	0.000171
3214	0.0001102
3226	0.000114
3238	0.0001824
3250	0.0001444
3262	0.0001254
3274	0.0001634
3286	0.0002356
3298	0.0001748
3310	0.0001368
3322	9.88e-05
3334	0.000304
3346	0.000323
3358	0.0006954
3370	0.000703
3382	0.0006726
3394	0.0003876
3406	0.0002584
3418	9.12e-05
3430	0.0001634
3442	0.0001368
3454	5.7e-05
3466	4.56e-05
3478	5.32e-05
3490	9.88e-05
3502	3.04e-05
3514	0.0001178
3526	9.5e-05
3538	8.74e-05
3550	4.56e-05
3562	8.36e-05
3574	0.0001444
3586	6.08e-05
3598	6.08e-05
3610	0.0001634
3622	9.12e-05
3634	0.0001102
3646	0.0001368
3658	5.32e-05
3670	2.28e-05
3682	3.42e-05
3694	9.12e-05
3706	7.98e-05
3718	0.0002242
3730	4.18e-05
3742	0.0001976
3754	0.0002166
3766	0.0002052
3778	0.0002888
3790	0.0001976
3802	0.0002698
3814	0.0002318
3826	0.000304
3838	0.0005548
