Infrared Spectrum: Thiazole
Formula: C 3 H 3 N S
CAS: 288-47-1
State: gas
Instrument: HP-GC/MS/IRD
Origin: NIST Mass Spectrometry Data Center
1/CM	ABSORBANCE
550	0.0002805
562	0.0007161
574	0.0012584
586	0.0014124
598	0.0034177
610	0.0014465
622	0.0019349
634	0.0010769
646	0.0004587
658	0.0002739
670	0.0004059
682	0.0010351
694	0.0017116
706	0.0019558
718	0.0070609
730	0.0021571
742	0.0020944
754	0.0015895
766	0.0025036
778	0.0032098
790	0.0053988
802	0.0042526
814	0.0036894
826	0.003267
838	0.0040854
850	0.0068519
862	0.0087923
874	0.0080608
886	0.0041063
898	0.0010703
910	0.0004301
922	0.0003179
934	0.0001122
946	0.0001265
958	3.41e-05
970	0.0001683
982	7.15e-05
994	8.58e-05
1006	0.0001089
1018	0.000473
1030	0.0009416
1042	0.0011693
1054	0.0011242
1066	0.0004466
1078	0.0002519
1090	0.0003179
1102	0.0005522
1114	0.0009537
1126	0.0007029
1138	0.0007524
1150	0.0003663
1162	0.0001562
1174	0.0001122
1186	0.0001771
1198	0.0002882
1210	0.0006578
1222	0.0012859
1234	0.0013387
1246	0.0015972
1258	0.0010989
1270	0.0003465
1282	0.0002365
1294	0.0005962
1306	0.0011781
1318	0.0011682
1330	0.001111
1342	0.0009581
1354	0.0010175
1366	0.0019349
1378	0.0021098
1390	0.0019393
1402	0.001496
1414	0.0008888
1426	0.0008272
1438	0.00099
1450	0.0015312
1462	0.0023925
1474	0.0028358
1486	0.0027588
1498	0.0024607
1510	0.0008734
1522	0.0004059
1534	0.0002387
1546	0.0001452
1558	0.0002629
1570	0.0004917
1582	0.0007161
1594	0.0008734
1606	0.0008239
1618	0.0006446
1630	0.0002541
1642	0.0001474
1654	0.0001397
1666	0.0001529
1678	0.0001738
1690	0.0001661
1702	0.0001441
1714	9.9e-05
1726	5.17e-05
1738	0.0001265
1750	0.000242
1762	0.0002981
1774	0.0003212
1786	0.0002937
1798	0.0001232
1810	3.74e-05
1822	3.74e-05
1834	3.52e-05
1846	4.51e-05
1858	6.82e-05
1870	3.41e-05
1882	4.4e-05
1894	5.83e-05
1906	5.17e-05
1918	5.28e-05
1930	7.37e-05
1942	5.61e-05
1954	3.41e-05
1966	6.93e-05
1978	8.91e-05
1990	7.04e-05
2002	9.68e-05
2014	8.03e-05
2026	4.29e-05
2038	7.7e-06
2050	7.48e-05
2062	8.14e-05
2074	0.0001353
2086	0.0001309
2098	9.79e-05
2110	0.0001474
2122	8.25e-05
2134	8.58e-05
2146	8.8e-05
2158	9.02e-05
2170	7.37e-05
2182	6.82e-05
2194	6.82e-05
2206	0.0001034
2218	9.24e-05
2230	0.0001397
2242	0.0001584
2254	0.0001958
2266	9.79e-05
2278	5.61e-05
2290	6.27e-05
2302	6.27e-05
2314	6.38e-05
2326	4.4e-05
2338	7.92e-05
2350	7.92e-05
2362	9.24e-05
2374	6.93e-05
2386	2.2e-05
2398	3.41e-05
2410	6.16e-05
2422	4.84e-05
2434	4.51e-05
2446	1.43e-05
2458	5.94e-05
2470	1.87e-05
2482	3.3e-06
2494	3.96e-05
2506	5.06e-05
2518	5.61e-05
2530	5.72e-05
2542	3.96e-05
2554	6.82e-05
2566	2.42e-05
2578	7.59e-05
2590	5.5e-05
2602	4.18e-05
2614	7.15e-05
2626	7.37e-05
2638	6.27e-05
2650	4.29e-05
2662	6.71e-05
2674	5.72e-05
2686	0.0001034
2698	0.0001243
2710	0.0001485
2722	0.0001342
2734	0.0001441
2746	0.000165
2758	0.0002585
2770	0.0001606
2782	4.18e-05
2794	0.0001111
2806	8.14e-05
2818	0.0001155
2830	6.05e-05
2842	1.65e-05
2854	4.29e-05
2866	5.83e-05
2878	4.4e-05
2890	3.08e-05
2902	4.07e-05
2914	4.4e-05
2926	1.65e-05
2938	0.0001606
2950	9.57e-05
2962	0.0001067
2974	7.37e-05
2986	2.42e-05
2998	2.97e-05
3010	5.17e-05
3022	5.06e-05
3034	5.5e-05
3046	9.79e-05
3058	0.0001298
3070	0.0002706
3082	0.000506
3094	0.0005423
3106	0.000594
3118	0.0005599
3130	0.0003685
3142	0.0002442
3154	0.0001793
3166	8.14e-05
3178	6.05e-05
3190	9.79e-05
3202	0.0001045
3214	0.0001122
3226	5.94e-05
3238	6.93e-05
3250	0.0001177
3262	4.73e-05
3274	0.0001067
3286	7.15e-05
3298	0.0001397
3310	7.92e-05
3322	8.91e-05
3334	7.7e-05
3346	0.0001144
3358	9.24e-05
3370	9.57e-05
3382	0.0001408
3394	0.0001606
3406	0.0001254
3418	0.00022
3430	8.58e-05
3442	0.0002442
3454	0.0002035
3466	0.0002321
3478	0.0002409
3490	0.0001705
3502	0.0001628
3514	0.0001397
3526	0.0001045
3538	0.0001771
3550	0.0001309
3562	0.0001969
3574	0.0001496
3586	0.0001661
3598	0.0001067
3610	0.0001507
3622	0.0001947
3634	0.0001705
3646	0.0001771
3658	0.0001474
3670	0.0001562
3682	0.0002376
3694	0.0002387
3706	0.0001947
3718	0.0002717
3730	0.0002519
3742	0.0001375
3754	0.0001958
3766	0.0001122
3778	0.0001166
3790	0.0001881
3802	0.0001474
3814	0.0001804
3826	0.0002332
3838	0.0002178
