Infrared Spectrum: 3-Chloropropionamide
Formula: C 3 H 6 Cl N O
CAS: 5875-24-1
State: gas
Instrument: HP-GC/MS/IRD
Origin: NIST Mass Spectrometry Data Center
1/CM	ABSORBANCE
550	0.0006252
562	0.0007164
574	0.0007608
586	0.0007584
598	0.0007248
610	0.000636
622	0.0005664
634	0.0007776
646	0.0008376
658	0.0008304
670	0.0009684
682	0.0007788
694	0.0005988
706	0.000456
718	0.0005628
730	0.0007164
742	0.001056
754	0.0013272
766	0.0011328
778	0.0008796
790	0.0007092
802	0.000588
814	0.0005436
826	0.000318
838	0.00042
850	0.0004656
862	0.000522
874	0.0005604
886	0.0005268
898	0.0004524
910	0.0005412
922	0.0005808
934	0.000564
946	0.0005208
958	0.0004392
970	0.0004524
982	0.0003456
994	0.0002904
1006	0.000222
1018	0.0002256
1030	0.0002808
1042	0.0001968
1054	0.0001608
1066	2.88e-05
1078	0.0001344
1090	0.0002088
1102	0.0002508
1114	7.8e-05
1126	5.52e-05
1138	0.0001164
1150	0.000126
1162	0.0001596
1174	0.0002328
1186	0.0003204
1198	0.000414
1210	0.0006564
1222	0.0008424
1234	0.0009768
1246	0.0009708
1258	0.0011172
1270	0.0014856
1282	0.0020448
1294	0.0022512
1306	0.0020064
1318	0.0016176
1330	0.0015864
1342	0.0019344
1354	0.0027048
1366	0.0036156
1378	0.0037176
1390	0.0025056
1402	0.0013524
1414	0.0010116
1426	0.000912
1438	0.0008088
1450	0.0006048
1462	0.0003324
1474	0.000162
1486	8.16e-05
1498	5.76e-05
1510	5.04e-05
1522	7.92e-05
1534	0.0001524
1546	0.0003108
1558	0.0006144
1570	0.001458
1582	0.003126
1594	0.0038256
1606	0.002742
1618	0.0014196
1630	0.0008436
1642	0.0006264
1654	0.0006048
1666	0.0007512
1678	0.0012048
1690	0.0021564
1702	0.0042216
1714	0.0075996
1726	0.0109836
1738	0.012
1750	0.0093384
1762	0.00492
1774	0.0021144
1786	0.000876
1798	0.0004284
1810	0.0002244
1822	0.000156
1834	0.0001356
1846	0.0001032
1858	9.36e-05
1870	6.36e-05
1882	5.64e-05
1894	4.8e-05
1906	3.6e-05
1918	2.28e-05
1930	3.12e-05
1942	3.6e-05
1954	3.36e-05
1966	4.8e-05
1978	3.96e-05
1990	3.48e-05
2002	9.6e-06
2014	2.04e-05
2026	2.52e-05
2038	4.56e-05
2050	8.4e-06
2062	9.6e-06
2074	1.68e-05
2086	9.6e-06
2098	1.44e-05
2110	3.48e-05
2122	3.6e-05
2134	5.04e-05
2146	1.2e-05
2158	4.2e-05
2170	3.48e-05
2182	4.08e-05
2194	3.84e-05
2206	5.28e-05
2218	7.08e-05
2230	5.28e-05
2242	5.28e-05
2254	3.96e-05
2266	4.92e-05
2278	1.44e-05
2290	3.24e-05
2302	2.76e-05
2314	4.8e-05
2326	6.12e-05
2338	2.64e-05
2350	3.24e-05
2362	4.56e-05
2374	3.36e-05
2386	5.04e-05
2398	2.28e-05
2410	5.64e-05
2422	4.8e-05
2434	4.32e-05
2446	4.8e-05
2458	5.28e-05
2470	5.52e-05
2482	3.48e-05
2494	3.12e-05
2506	5.52e-05
2518	2.76e-05
2530	2.52e-05
2542	2.76e-05
2554	1.2e-05
2566	4.92e-05
2578	3.24e-05
2590	3.6e-05
2602	6e-05
2614	3.84e-05
2626	6.24e-05
2638	5.4e-05
2650	2.04e-05
2662	6.96e-05
2674	6.72e-05
2686	2.16e-05
2698	7.56e-05
2710	2.4e-05
2722	2.04e-05
2734	5.76e-05
2746	4.08e-05
2758	4.92e-05
2770	7.68e-05
2782	4.2e-05
2794	8.76e-05
2806	8.88e-05
2818	0.0001092
2830	8.28e-05
2842	0.0001188
2854	0.000102
2866	0.0001608
2878	0.0001788
2890	0.0001872
2902	0.0002184
2914	0.0003108
2926	0.0004032
2938	0.0004956
2950	0.000582
2962	0.0007584
2974	0.000798
2986	0.0007452
2998	0.0005892
3010	0.000426
3022	0.0002628
3034	0.0002112
3046	0.0001452
3058	0.0001764
3070	0.000126
3082	0.0001032
3094	0.000102
3106	0.000144
3118	7.92e-05
3130	0.0001128
3142	0.0001068
3154	0.000138
3166	6.24e-05
3178	0.0001152
3190	0.000126
3202	0.0001368
3214	0.0001104
3226	5.4e-05
3238	9.48e-05
3250	0.0001296
3262	8.64e-05
3274	6.96e-05
3286	7.8e-05
3298	0.0001428
3310	0.0001536
3322	0.0001668
3334	0.0001428
3346	0.0001596
3358	0.000132
3370	0.0002076
3382	0.0003348
3394	0.0004932
3406	0.0007848
3418	0.0011424
3430	0.001338
3442	0.001278
3454	0.00084
3466	0.0004752
3478	0.00039
3490	0.0004176
3502	0.0005304
3514	0.0007176
3526	0.000984
3538	0.0012012
3550	0.0012384
3562	0.001056
3574	0.0006108
3586	0.0002748
3598	0.0001104
3610	0.0001632
3622	6.84e-05
3634	0.0001596
3646	8.64e-05
3658	6.6e-05
3670	9e-05
3682	7.68e-05
3694	2.16e-05
3706	6e-05
3718	5.52e-05
3730	6.96e-05
3742	7.8e-05
3754	4.2e-05
3766	7.92e-05
3778	9.72e-05
3790	0.0001764
3802	6.96e-05
3814	4.8e-05
3826	9.96e-05
3838	7.08e-05
