Infrared Spectrum: Butanal
Formula: C 4 H 8 O
CAS: 123-72-8
State: gas
Origin: Sadtler Research Labs Under US-EPA Contract
1/CM	ABSORBANCE
450	0
462	0.0050088
474	0.00729543
486	0.00969094
498	0.0226485
510	0.0406149
522	0.0444259
534	0.0307061
546	0.0161153
558	0.0111065
570	0.00620656
582	0.00631545
594	0.00511769
606	0.00805764
618	0.00827541
630	0.0116509
642	0.0153531
654	0.0179664
666	0.0276573
678	0.0267862
690	0.0218863
702	0.011542
714	0.00903762
726	0.00979983
738	0.0139375
750	0.0225396
762	0.0418126
774	0.0604323
786	0.0607589
798	0.0426837
810	0.0243907
822	0.021233
834	0.0206885
846	0.0193819
858	0.014482
870	0.00990872
882	0.00903762
894	0.00936428
906	0.014482
918	0.0285284
930	0.0414859
942	0.0529191
954	0.0569479
966	0.0596701
978	0.0598878
990	0.0603234
1002	0.0534635
1014	0.0315772
1026	0.027984
1038	0.039526
1050	0.0485636
1062	0.0461681
1074	0.0382193
1086	0.043337
1098	0.0527013
1110	0.0711032
1122	0.0786164
1134	0.0868918
1146	0.0779631
1158	0.0605412
1170	0.0438815
1182	0.0359327
1194	0.0304884
1206	0.0307061
1218	0.0319039
1230	0.0293995
1242	0.0254796
1254	0.0299439
1266	0.0360416
1278	0.0377838
1290	0.0322306
1302	0.0271129
1314	0.0259151
1326	0.0338639
1338	0.054879
1350	0.0802497
1362	0.0928806
1374	0.0932073
1386	0.105512
1398	0.118142
1410	0.113678
1422	0.0999583
1434	0.0993049
1446	0.0986516
1458	0.105947
1470	0.103552
1482	0.0752409
1494	0.044317
1506	0.0229752
1518	0.0127398
1530	0.00903762
1542	0.00479103
1554	0.0058799
1566	0.00620656
1578	0.00598878
1590	0.0075132
1602	0.00805764
1614	0.00958206
1626	0.0112154
1638	0.0138286
1650	0.0188375
1662	0.0264595
1674	0.0394171
1686	0.0631545
1698	0.10954
1710	0.194799
1722	0.408217
1734	0.924124
1746	1.06611
1758	0.951999
1770	0.402011
1782	0.219625
1794	0.130773
1806	0.0749143
1818	0.0422482
1830	0.0262418
1842	0.019273
1854	0.0157886
1866	0.0130664
1878	0.0118687
1890	0.0101265
1902	0.0101265
1914	0.00958206
1926	0.00849319
1938	0.00794875
1950	0.00729543
1962	0.00696877
1974	0.00664211
1986	0.00642433
1998	0.00642433
2010	0.00598878
2022	0.00609767
2034	0.00609767
2046	0.00598878
2058	0.00533546
2070	0.00511769
2082	0.00533546
2094	0.00522658
2106	0.00555324
2118	0.00555324
2130	0.00566212
2142	0.00577101
2154	0.00533546
2166	0.0058799
2178	0.00566212
2190	0.00544435
2202	0.00544435
2214	0.00533546
2226	0.00533546
2238	0.00533546
2250	0.00522658
2262	0.00489992
2274	0.00489992
2286	0.00468214
2298	0.00457325
2310	0.00479103
2322	0.0050088
2334	0.00457325
2346	0.0050088
2358	0.00370216
2370	0.00402882
2382	0.00381104
2394	0.00381104
2406	0.00359327
2418	0.00381104
2430	0.00370216
2442	0.00370216
2454	0.00359327
2466	0.0033755
2478	0.0033755
2490	0.00359327
2502	0.00381104
2514	0.00446437
2526	0.00468214
2538	0.00489992
2550	0.0058799
2562	0.00718654
2574	0.00849319
2586	0.0103443
2598	0.0124131
2610	0.0155708
2622	0.021233
2634	0.029835
2646	0.0424659
2658	0.06261
2670	0.0999583
2682	0.163875
2694	0.288442
2706	0.411266
2718	0.426075
2730	0.323612
2742	0.205579
2754	0.157668
2766	0.142315
2778	0.15658
2790	0.212547
2802	0.291055
2814	0.307715
2826	0.257844
2838	0.174981
2850	0.141553
2862	0.157233
2874	0.244451
2886	0.350725
2898	0.385351
2910	0.354209
2922	0.338094
2934	0.402337
2946	0.49402
2958	0.595721
2970	0.706677
2982	0.592345
2994	0.383936
3006	0.161588
3018	0.0705588
3030	0.0403971
3042	0.0304884
3054	0.0259151
3066	0.0221041
3078	0.0191641
3090	0.0172041
3102	0.0156797
3114	0.0149175
3126	0.0149175
3138	0.0141553
3150	0.0129576
3162	0.0124131
3174	0.0113242
3186	0.0106709
3198	0.00914651
3210	0.00805764
3222	0.00685988
3234	0.00522658
3246	0.00446437
3258	0.00424659
3270	0.00402882
3282	0.00391993
3294	0.00315772
3306	0.00315772
3318	0.00348438
3330	0.00391993
3342	0.00424659
3354	0.00424659
3366	0.00489992
3378	0.00468214
3390	0.00511769
3402	0.00511769
3414	0.00609767
3426	0.00816653
3438	0.0114331
3450	0.018293
3462	0.0264595
3474	0.0265684
3486	0.0203619
3498	0.0124131
3510	0.00729543
3522	0.0050088
3534	0.00489992
3546	0.00522658
3558	0.00740432
3570	0.0141553
3582	0.0150264
3594	0.0101265
3606	0.00664211
3618	0.00620656
3630	0.00457325
3642	0.00631545
3654	0.00783986
3666	0.00773098
3678	0.0058799
3690	0.0058799
3702	0.00555324
3714	0.00489992
3726	0.00566212
3738	0.00544435
3750	0.00533546
3762	0.00566212
3774	0.00479103
3786	0.00413771
3798	0.00577101
3810	0.00642433
3822	0.00598878
3834	0.00642433
3846	0.00675099
3858	0.00675099
3870	0.00631545
3882	0.00577101
3894	0.0058799
3906	0.0058799
3918	0.00598878
3930	0.00685988
3942	0.00620656
3954	0.00620656
3966	0.00696877
