Infrared Spectrum: t-Butyl isocyanide
Formula: C 5 H 9 N
CAS: 7188-38-7
State: gas
Origin: EPA-IR VAPOR PHASE LIBRARY
1/CM	ABSORBANCE
501.5	0.016371
513.074	0.021601
524.648	0.015551
536.222	0.008551
547.796	0.003681
559.37	0.0014457
570.944	0.00080755
582.518	0.000251
594.092	0.000111
605.666	0.000102
617.24	0.000171
628.814	0.000495
640.388	0.002281
651.962	0.007831
663.536	0.012991
675.11	0.014061
686.684	0.013581
698.258	0.010561
709.832	0.009561
721.406	0.006001
732.98	0.002571
744.554	0.0011735
756.128	0.000848
767.702	0.000599
779.276	0.000298
790.85	0.000182
802.423	0.000319
813.997	0.000573
825.571	0.001326
837.145	0.004991
848.719	0.013501
860.293	0.019941
871.867	0.018331
883.441	0.012561
895.015	0.002941
906.589	0.0015436
918.163	0.0014102
929.737	0.0013604
941.311	0.0009349
952.885	0.000499
964.459	0.000448
976.033	0.000445
987.607	0.000613
999.181	0.0009511
1010.76	0.001791
1022.33	0.003251
1033.9	0.004451
1045.48	0.004531
1057.05	0.003641
1068.63	0.002601
1080.2	0.002171
1091.77	0.002501
1103.35	0.002721
1114.92	0.003191
1126.49	0.003251
1138.07	0.003851
1149.64	0.006041
1161.22	0.010671
1172.79	0.019671
1184.36	0.036201
1195.94	0.067911
1207.51	0.128241
1219.09	0.229421
1230.66	0.222181
1242.23	0.067951
1253.81	0.021821
1265.38	0.011251
1276.96	0.007221
1288.53	0.005211
1300.1	0.003901
1311.68	0.003181
1323.25	0.003221
1334.83	0.005611
1346.4	0.017561
1357.97	0.046381
1369.55	0.069971
1381.12	0.069511
1392.7	0.057101
1404.27	0.025241
1415.84	0.017271
1427.42	0.013911
1438.99	0.018011
1450.57	0.028131
1462.14	0.037321
1473.71	0.041891
1485.29	0.031221
1496.86	0.022531
1508.44	0.008231
1520.01	0.003471
1531.58	0.002611
1543.16	0.002161
1554.73	0.001801
1566.31	0.0015148
1577.88	0.0013335
1589.45	0.0013377
1601.03	0.0013988
1612.6	0.0015747
1624.18	0.0016993
1635.75	0.001811
1647.32	0.001881
1658.9	0.001685
1670.47	0.0014817
1682.05	0.0014293
1693.62	0.0014384
1705.19	0.0016375
1716.77	0.001841
1728.34	0.001981
1739.92	0.001961
1751.49	0.0017205
1763.06	0.0014585
1774.64	0.0014162
1786.21	0.0014193
1797.79	0.0013588
1809.36	0.0011687
1820.93	0.0010523
1832.51	0.0010071
1844.08	0.0010765
1855.66	0.0011142
1867.23	0.0013147
1878.8	0.001761
1890.38	0.002451
1901.95	0.003391
1913.53	0.004491
1925.1	0.005721
1936.67	0.006691
1948.25	0.007101
1959.82	0.006081
1971.4	0.003681
1982.97	0.001901
1994.54	0.0013576
2006.12	0.0016048
2017.69	0.002661
2029.27	0.004961
2040.84	0.009551
2052.41	0.017951
2063.99	0.031351
2075.56	0.050551
2087.14	0.080091
2098.71	0.146061
2110.28	0.263321
2121.86	0.349611
2133.43	0.331071
2145.01	0.193731
2156.58	0.048051
2168.15	0.010661
2179.73	0.005061
2191.3	0.003201
2202.88	0.002421
2214.45	0.002281
2226.02	0.002901
2237.6	0.003761
2249.17	0.004451
2260.74	0.005491
2272.32	0.008901
2283.89	0.013751
2295.47	0.012481
2307.04	0.006001
2318.61	0.002601
2330.19	0.0014616
2341.76	0.0010519
2353.34	0.0008872
2364.91	0.0008746
2376.48	0.0009264
2388.06	0.0010662
2399.63	0.0012505
2411.21	0.001344
2422.78	0.0012841
2434.35	0.0012278
2445.93	0.0013103
2457.5	0.0013375
2469.08	0.0013135
2480.65	0.0012803
2492.22	0.0011746
2503.8	0.001032
2515.37	0.000933
2526.95	0.00074641
2538.52	0.0006801
2550.09	0.0006933
2561.67	0.0008543
2573.24	0.0012651
2584.82	0.0016732
2596.39	0.002211
2607.96	0.002691
2619.54	0.003161
2631.11	0.003151
2642.69	0.002441
2654.26	0.001911
2665.83	0.0016477
2677.41	0.0015996
2688.98	0.0014512
2700.56	0.0015243
2712.13	0.0017
2723.7	0.002111
2735.28	0.002651
2746.85	0.002801
2758.43	0.002751
2770	0.002761
2781.57	0.003221
2793.15	0.004141
2804.72	0.005181
2816.3	0.006411
2827.87	0.007421
2839.44	0.008661
2851.02	0.011501
2862.59	0.018041
2874.17	0.028111
2885.74	0.037561
2897.31	0.045411
2908.89	0.052391
2920.46	0.060421
2932.04	0.073801
2943.61	0.087741
2955.18	0.090461
2966.76	0.122061
2978.33	0.221451
2989.91	0.311961
3001.48	0.228321
3013.05	0.117501
3024.63	0.026901
3036.2	0.008821
3047.78	0.005521
3059.35	0.004501
3070.92	0.004061
3082.5	0.003841
3094.07	0.003741
3105.65	0.003871
3117.22	0.003851
3128.79	0.003871
3140.37	0.003911
3151.94	0.004251
3163.52	0.004431
3175.09	0.004261
3186.66	0.004211
3198.24	0.004231
3209.81	0.004161
3221.39	0.004151
3232.96	0.004261
3244.53	0.004531
3256.11	0.004231
3267.68	0.003361
3279.26	0.002321
3290.83	0.0016279
3302.4	0.0012441
3313.98	0.0013524
3325.55	0.002151
3337.13	0.002831
3348.7	0.003211
3360.27	0.002671
3371.85	0.002221
3383.42	0.002021
3395	0.0015066
3406.57	0.0010586
3418.14	0.00079257
3429.72	0.00075359
3441.29	0.0008504
3452.86	0.0008759
3464.44	0.0009362
3476.01	0.0012173
3487.59	0.0015038
3499.16	0.0016401
3510.73	0.0013589
3522.31	0.0011967
3533.88	0.0008664
3545.46	0.00081146
3557.03	0.0006436
3568.6	0.00077635
3580.18	0.000615
3591.75	0.000609
3603.33	0.00074524
3614.9	0.000598
3626.47	0.000627
3638.05	0.0007059
3649.62	0.0006908
3661.2	0.0006918
3672.77	0.00072103
3684.34	0.0006863
3695.92	0.00076784
3707.49	0.0006945
3719.07	0.00073526
3730.64	0.0006758
3742.21	0.0006969
3753.79	0.0007506
3765.36	0.0008312
3776.94	0.000736454
3788.51	0.0008391
3800.08	0.0009468
3811.66	0.001026
3823.23	0.0011488
3834.81	0.0011192
3846.38	0.001248
3857.95	0.0013533
3869.53	0.0013472
3881.1	0.0013954
3892.68	0.0014473
3904.25	0.0016669
3915.82	0.001781
3927.4	0.001771
3938.97	0.001741
3950.55	0.001731
3962.12	0.001891
3973.69	0.001961
3985.27	0.001811
3996.84	0.001851
