Infrared Spectrum: 3-Penten-2-ol
Formula: C 5 H 10 O
CAS: 1569-50-2
State: gas
Instrument: HP-GC/MS/IRD
Origin: NIST Mass Spectrometry Data Center
1/CM	ABSORBANCE
550	0.0005445
562	0.0002865
574	0.000312
586	0.0001485
598	0.0003105
610	0.0002505
622	0.0003885
634	0.000315
646	9.75e-05
658	3.6e-05
670	0.0001005
682	0.000129
694	0.0001125
706	0.000255
718	0.000189
730	0.0001875
742	0.0001125
754	3.6e-05
766	0.0002295
778	0.00027
790	0.000318
802	0.000432
814	0.0006765
826	0.0009045
838	0.001203
850	0.0013935
862	0.0016725
874	0.0018495
886	0.00237
898	0.004071
910	0.0053415
922	0.0056415
934	0.0050955
946	0.006495
958	0.0081705
970	0.0087945
982	0.0068265
994	0.0049935
1006	0.004536
1018	0.005544
1030	0.007254
1042	0.0088215
1054	0.0089745
1066	0.0074775
1078	0.005436
1090	0.004845
1102	0.0050385
1114	0.0051705
1126	0.0049455
1138	0.004545
1150	0.003882
1162	0.003018
1174	0.002268
1186	0.002034
1198	0.002148
1210	0.002595
1222	0.0033675
1234	0.0044475
1246	0.004992
1258	0.004656
1270	0.003486
1282	0.002889
1294	0.0028665
1306	0.0029085
1318	0.0031725
1330	0.003501
1342	0.0043335
1354	0.0051285
1366	0.006009
1378	0.00624
1390	0.0053385
1402	0.0036585
1414	0.0026895
1426	0.002613
1438	0.003114
1450	0.0034065
1462	0.0029925
1474	0.0023295
1486	0.0015045
1498	0.001089
1510	0.0012165
1522	0.0009975
1534	0.000741
1546	0.0007125
1558	0.0007695
1570	0.0004305
1582	0.000423
1594	0.0004875
1606	0.0005415
1618	0.000618
1630	0.0006015
1642	0.00084
1654	0.00135
1666	0.0013845
1678	0.001251
1690	0.0007845
1702	0.000633
1714	0.000522
1726	0.000405
1738	0.0005985
1750	0.0006975
1762	0.000489
1774	0.00042
1786	0.0003945
1798	0.0004605
1810	0.000429
1822	0.00036
1834	0.0002985
1846	0.0003285
1858	0.000165
1870	0.00018
1882	0.0001005
1894	7.05e-05
1906	6.75e-05
1918	0.0001125
1930	3e-05
1942	8.4e-05
1954	4.35e-05
1966	0.000102
1978	6.9e-05
1990	0.0001365
2002	0.0001185
2014	9.75e-05
2026	5.7e-05
2038	4.2e-05
2050	4.2e-05
2062	2.1e-05
2074	6e-06
2086	1.5e-05
2098	0
2110	2.25e-05
2122	2.25e-05
2134	2.55e-05
2146	2.25e-05
2158	4.5e-05
2170	1.95e-05
2182	1.35e-05
2194	2.7e-05
2206	1.05e-05
2218	9e-06
2230	2.85e-05
2242	1.95e-05
2254	3.45e-05
2266	3.6e-05
2278	4.5e-05
2290	3e-05
2302	7.05e-05
2314	2.7e-05
2326	3.6e-05
2338	5.4e-05
2350	7.35e-05
2362	0.000102
2374	9.45e-05
2386	0.0001005
2398	8.55e-05
2410	0.00012
2422	0.0001335
2434	0.0001035
2446	0.000111
2458	0.000126
2470	0.0001335
2482	0.000129
2494	0.0001305
2506	7.8e-05
2518	7.35e-05
2530	8.1e-05
2542	0.000102
2554	0.0001005
2566	0.0001455
2578	0.000159
2590	0.0001665
2602	0.0001875
2614	0.0001845
2626	0.0002055
2638	0.000216
2650	0.000201
2662	0.0001845
2674	0.0001905
2686	0.000189
2698	0.000255
2710	0.0003
2722	0.000369
2734	0.00054
2746	0.0006105
2758	0.00054
2770	0.000459
2782	0.000504
2794	0.0006135
2806	0.0008025
2818	0.001065
2830	0.0014445
2842	0.002265
2854	0.004116
2866	0.006867
2878	0.0085155
2890	0.0083925
2902	0.0078465
2914	0.0086175
2926	0.010332
2938	0.010569
2950	0.0094455
2962	0.010824
2974	0.014439
2986	0.0139455
2998	0.01032
3010	0.0067785
3022	0.0055185
3034	0.004482
3046	0.0034455
3058	0.0025455
3070	0.00195
3082	0.001671
3094	0.001347
3106	0.001125
3118	0.00084
3130	0.0006195
3142	0.000504
3154	0.000426
3166	0.0003015
3178	0.000249
3190	0.0002325
3202	0.000234
3214	0.0002055
3226	0.000171
3238	9.15e-05
3250	4.05e-05
3262	3.75e-05
3274	2.55e-05
3286	3e-05
3298	1.5e-06
3310	9e-05
3322	5.25e-05
3334	0.000105
3346	0.0001005
3358	0.000132
3370	6.75e-05
3382	0.0001425
3394	0.000123
3406	0.0001515
3418	0.000192
3430	9e-05
3442	0.0001815
3454	0.0001425
3466	0.0001545
3478	0.000198
3490	0.000144
3502	0.0002235
3514	0.0001185
3526	0.0002115
3538	0.0001275
3550	0.0001905
3562	0.0002325
3574	0.0001545
3586	0.0003765
3598	0.000297
3610	0.0006525
3622	0.0010605
3634	0.001899
3646	0.0024855
3658	0.00228
3670	0.0014355
3682	0.000624
3694	0.000306
3706	0.000312
3718	0.0002295
3730	0.0003015
3742	0.000357
3754	0.000297
3766	0.0002055
3778	0.0001155
3790	0.000117
3802	0.000312
3814	0.0001815
3826	0.0002175
3838	0.000327
