Infrared Spectrum: Ethane, 1,2-dichloro-
Formula: C 2 H 4 Cl 2
CAS: 107-06-2
State: gas
Origin: Sadtler Research Labs Under US-EPA Contract
1/CM	ABSORBANCE
450	0
462	0.0135148
474	0.0193402
486	0.0262141
498	0.0156119
510	0.0228354
522	0.0215538
534	0.0159615
546	0.0195732
558	0.0147964
570	0.0145634
582	0.0233014
594	0.0173595
606	0.0200392
618	0.0213208
630	0.0219033
642	0.0407774
654	0.0694382
666	0.0789917
678	0.173129
690	0.211344
702	0.358376
714	0.888715
726	1.08014
738	0.388434
750	0.033787
762	0.0348356
774	0.0389133
786	0.0316899
798	0.0313404
810	0.0281947
822	0.0234179
834	0.0249325
846	0.0209713
858	0.0194567
870	0.0372822
882	0.0982154
894	0.0928561
906	0.0573214
918	0.0332045
930	0.0461368
942	0.0531272
954	0.0535932
966	0.0344861
978	0.0262141
990	0.024816
1002	0.0269131
1014	0.0281947
1026	0.0306413
1038	0.0240004
1050	0.0202722
1062	0.017243
1074	0.0144469
1086	0.0147964
1098	0.017476
1110	0.0187576
1122	0.0212043
1134	0.0212043
1146	0.0210878
1158	0.0199227
1170	0.0186411
1182	0.0188741
1194	0.025049
1206	0.0325055
1218	0.11639
1230	0.329249
1242	0.337754
1254	0.0577875
1266	0.049632
1278	0.136663
1290	0.193984
1302	0.18979
1314	0.067341
1326	0.058603
1338	0.0464863
1350	0.033321
1362	0.0285442
1374	0.0207382
1386	0.0207382
1398	0.024583
1410	0.0318064
1422	0.0570884
1434	0.0935551
1446	0.112662
1458	0.0923901
1470	0.0768946
1482	0.0436901
1494	0.033321
1506	0.0256315
1518	0.0236509
1530	0.0224859
1542	0.0222528
1554	0.0182916
1566	0.0166605
1578	0.0199227
1590	0.0223693
1602	0.0244665
1614	0.0226024
1626	0.0151459
1638	0.0166605
1650	0.0139808
1662	0.0128158
1674	0.0137478
1686	0.016311
1698	0.0151459
1710	0.0124662
1722	0.0131653
1734	0.0138643
1746	0.0125828
1758	0.0122332
1770	0.0140973
1782	0.0130488
1794	0.0136313
1806	0.0125828
1818	0.0125828
1830	0.0137478
1842	0.0126993
1854	0.0126993
1866	0.0130488
1878	0.0133983
1890	0.0144469
1902	0.0132818
1914	0.0131653
1926	0.0133983
1938	0.0116507
1950	0.0114177
1962	0.0123497
1974	0.0121167
1986	0.0123497
1998	0.0124662
2010	0.0132818
2022	0.0154954
2034	0.0153789
2046	0.0137478
2058	0.0121167
2070	0.0120002
2082	0.0122332
2094	0.0126993
2106	0.0135148
2118	0.0137478
2130	0.0128158
2142	0.0124662
2154	0.0122332
2166	0.0124662
2178	0.0132818
2190	0.0140973
2202	0.0142139
2214	0.0152624
2226	0.0149129
2238	0.0145634
2250	0.0136313
2262	0.0125828
2274	0.0122332
2286	0.0117672
2298	0.0121167
2310	0.0121167
2322	0.0118837
2334	0.0121167
2346	0.0129323
2358	0.0111847
2370	0.0143304
2382	0.0145634
2394	0.0128158
2406	0.0113012
2418	0.0109517
2430	0.0109517
2442	0.0117672
2454	0.0120002
2466	0.0116507
2478	0.0111847
2490	0.0101361
2502	0.0104856
2514	0.0101361
2526	0.00885453
2538	0.00897104
2550	0.00803898
2562	0.00803898
2574	0.00768946
2586	0.00768946
2598	0.00757296
2610	0.00780597
2622	0.00803898
2634	0.00792248
2646	0.0083885
2658	0.00885453
2670	0.0102526
2682	0.0124662
2694	0.0132818
2706	0.0103691
2718	0.0116507
2730	0.0122332
2742	0.0144469
2754	0.0166605
2766	0.0156119
2778	0.0115342
2790	0.0131653
2802	0.00955357
2814	0.008272
2826	0.0110682
2838	0.0186411
2850	0.025748
2862	0.0280782
2874	0.0274957
2886	0.0436901
2898	0.0398454
2910	0.0271461
2922	0.0273791
2934	0.0419425
2946	0.0794578
2958	0.134566
2970	0.166255
2982	0.162527
2994	0.144469
3006	0.107536
3018	0.0830695
3030	0.0591856
3042	0.0454377
3054	0.0355346
3066	0.0319229
3078	0.0246995
3090	0.0173595
3102	0.0177091
3114	0.0147964
3126	0.0133983
3138	0.0124662
3150	0.0115342
3162	0.0125828
3174	0.0121167
3186	0.0117672
3198	0.0113012
3210	0.0124662
3222	0.00897104
3234	0.0101361
3246	0.0115342
3258	0.0104856
3270	0.00967008
3282	0.00955357
3294	0.0110682
3306	0.0123497
3318	0.0083885
3330	0.0143304
3342	0.00978659
3354	0.0135148
3366	0.0137478
3378	0.0108352
3390	0.0117672
3402	0.0125828
3414	0.0137478
3426	0.0138643
3438	0.0126993
3450	0.0101361
3462	0.0103691
3474	0.0107186
3486	0.00978659
3498	0.0142139
3510	0.0114177
3522	0.0115342
3534	0.0111847
3546	0.00897104
3558	0.0099031
3570	0.00885453
3582	0.0107186
3594	0.0115342
3606	0.0132818
3618	0.0102526
3630	0.0139808
3642	0.0118837
3654	0.0108352
3666	0.0100196
3678	0.0118837
3690	0.0140973
3702	0.0128158
3714	0.0133983
3726	0.0122332
3738	0.0130488
3750	0.0144469
3762	0.0139808
3774	0.0115342
3786	0.0099031
3798	0.0124662
3810	0.0101361
3822	0.0135148
3834	0.0110682
3846	0.0111847
3858	0.00920405
3870	0.0109517
3882	0.016544
3894	0.016078
3906	0.017243
3918	0.0132818
3930	0.00722343
3942	0.0147964
3954	0.0152624
3966	0.0099031
