Infrared Spectrum: 1,2-DICHLOROETHANE
Formula: C2 H4 Cl2
CAS: 107-06-2
Class: COBLENTZ
Instrument: Not specified, most likely a prism, grating, or hybrid spectrometer.
Sampling: TRANSMISSION
Path length: 0.0025 CM
Resolution: 4
Origin: W.T. BOLLETER
MICROMETERS	TRANSMITTANCE
14.542	0.005
14.612	0.005
14.6819	0.007
14.7519	0.007
14.8219	0.007
14.8919	0.007
14.9618	0.007
15.0318	0.007
15.1018	0.008
15.1718	0.008
15.2417	0.008
15.3117	0.01
15.3817	0.01
15.4517	0.017
15.5216	0.051
15.5916	0.106
15.6616	0.214
15.7315	0.303
15.8015	0.38
15.8715	0.452
15.9415	0.504
16.0114	0.561
16.0814	0.614
16.1514	0.65
16.2214	0.674
16.2913	0.696
16.3613	0.71
16.4313	0.717
16.5012	0.722
16.5712	0.719
16.6412	0.71
16.7112	0.712
16.7811	0.724
16.8511	0.753
16.9211	0.786
16.9911	0.82
17.061	0.841
17.131	0.852
17.201	0.859
17.271	0.861
17.3409	0.863
17.4109	0.863
17.4809	0.857
17.5508	0.847
17.6208	0.824
17.6908	0.795
17.7608	0.763
17.8307	0.754
17.9007	0.765
17.9707	0.795
18.0407	0.813
18.1106	0.824
18.1806	0.829
18.2506	0.833
18.3206	0.833
18.3905	0.831
18.4605	0.831
18.5305	0.827
18.6004	0.822
18.6704	0.82
18.7404	0.813
18.8104	0.811
18.8803	0.813
18.9503	0.817
19.0203	0.829
19.0903	0.845
19.1602	0.856
19.2302	0.861
19.3002	0.866
19.3701	0.87
19.4401	0.866
19.5101	0.857
19.5801	0.847
19.65	0.833
19.72	0.829
19.79	0.831
19.86	0.841
19.9299	0.854
19.9999	0.861
20.0699	0.866
20.1399	0.872
20.2098	0.877
20.2798	0.879
20.3498	0.879
20.4197	0.877
20.4897	0.875
20.5597	0.873
20.6297	0.87
20.6996	0.868
20.7696	0.866
20.8396	0.863
20.9096	0.861
20.9795	0.859
21.0495	0.857
21.1195	0.856
21.1894	0.852
21.2594	0.85
21.3294	0.849
21.3994	0.847
21.4693	0.843
21.5393	0.84
21.6093	0.834
21.6793	0.829
21.7492	0.822
21.8192	0.806
21.8892	0.797
21.9592	0.79
22.0291	0.783
22.0991	0.781
22.1691	0.779
22.239	0.781
22.309	0.783
22.379	0.781
22.449	0.781
22.5189	0.777
22.5889	0.776
22.6589	0.772
22.7289	0.763
22.7988	0.758
22.8688	0.747
22.9388	0.731
23.0088	0.719
23.0787	0.696
23.1487	0.678
23.2187	0.646
23.2886	0.612
23.3586	0.57
23.4286	0.529
23.4986	0.476
23.5685	0.424
23.6385	0.357
23.7085	0.294
23.7785	0.227
23.8484	0.163
23.9184	0.103
23.9884	0.078
24.0583	0.044
24.1283	0.024
24.1983	0.017
24.2683	0.015
24.3382	0.015
24.4082	0.019
24.4782	0.026
24.5482	0.047
24.6181	0.09
24.6881	0.134
24.7581	0.216
24.8281	0.266
24.898	0.33
24.968	0.392
25.038	0.449
25.1079	0.497
25.1779	0.538
25.2479	0.577
25.3179	0.6
25.3878	0.628
25.4578	0.655
25.5278	0.68
25.5978	0.696
25.6677	0.719
25.7377	0.737
25.8077	0.758
25.8777	0.77
25.9476	0.781
26.0176	0.795
26.0876	0.809
26.1575	0.822
26.2275	0.834
26.2975	0.845
26.3675	0.856
26.4374	0.863
26.5074	0.87
26.5774	0.875
26.6474	0.884
26.7173	0.888
26.7873	0.896
26.8573	0.905
26.9272	0.92
26.9972	0.936
27.0672	0.944
27.1372	0.948
27.2071	0.95
27.2771	0.959
27.3471	0.962
27.4171	0.957
27.487	0.962
27.557	0.971
27.627	0.973
27.697	0.975
27.7669	0.978
27.8369	0.98
27.9069	0.98
27.9768	0.985
28.0468	0.991
28.1168	0.994
28.1868	0.996
28.2567	0.998
28.3267	0.998
28.3967	0.998
28.4667	0.996
28.5366	0.994
28.6066	1
28.6766	0.998
28.7466	0.998
28.8165	0.998
28.8865	0.998
28.9565	0.996
29.0264	0.996
29.0964	0.996
29.1664	0.996
29.2364	0.996
29.3063	0.994
29.3763	0.992
29.4463	0.992
29.5163	0.989
29.5862	0.989
29.6562	0.989
29.7262	0.989
29.7961	0.989
29.8661	0.985
29.9361	0.984
30.0061	0.982
30.076	0.978
30.146	0.978
30.216	0.969
30.286	0.966
30.3559	0.964
30.4259	0.957
30.4959	0.95
30.5659	0.939
30.6358	0.923
30.7058	0.909
30.7758	0.898
30.8457	0.889
30.9157	0.882
30.9857	0.875
31.0557	0.872
31.1256	0.868
31.1956	0.868
31.2656	0.87
31.3356	0.872
31.4055	0.87
31.4755	0.868
31.5455	0.87
31.6154	0.866
31.6854	0.866
31.7554	0.866
31.8254	0.865
31.8953	0.861
31.9653	0.859
32.0353	0.854
32.1053	0.849
32.1752	0.847
32.2452	0.84
32.3152	0.838
32.3852	0.838
32.4551	0.836
32.5251	0.829
32.5951	0.824
32.665	0.822
32.735	0.817
32.805	0.811
32.875	0.811
32.9449	0.813
33.0149	0.809
33.0849	0.802
33.1549	0.799
33.2248	0.795
33.2948	0.795
33.3648	0.79
33.4348	0.785
33.5047	0.779
33.5747	0.781
33.6447	0.781
33.7146	0.779
33.7846	0.776
33.8546	0.772
33.9246	0.769
33.9945	0.765
34.0645	0.765
34.1345	0.76
34.2045	0.753
34.2744	0.749
34.3444	0.74
34.4144	0.735
34.4843	0.728
34.5543	0.719
34.6243	0.708
34.6943	0.698
34.7642	0.69
34.8342	0.685
34.9042	0.674
34.9742	0.666
35.0441	0.655
35.1141	0.648
35.1841	0.635
35.2541	0.626
35.324	0.621
35.394	0.618
35.464	0.607
35.5339	0.591
35.6039	0.577
35.6739	0.568
35.7439	0.564
35.8138	0.557
35.8838	0.547
35.9538	0.539
36.0238	0.527
36.0937	0.513
36.1637	0.506
36.2337	0.499
36.3037	0.49
36.3736	0.474
36.4436	0.463
36.5136	0.456
36.5835	0.447
36.6535	0.444
36.7235	0.435
36.7935	0.428
36.8634	0.422
36.9334	0.417
37.0034	0.417
37.0734	0.412
37.1433	0.41
37.2133	0.403
37.2833	0.397
37.3532	0.394
37.4232	0.394
37.4932	0.392
37.5632	0.387
37.6331	0.385
37.7031	0.383
37.7731	0.38
37.8431	0.38
37.913	0.38
37.983	0.38
