Infrared Spectrum: Crotonaldehyde
Formula: C 4 H 6 O
CAS: 4170-30-3
State: gas
Instrument: HP-GC/MS/IRD
Origin: NIST Mass Spectrometry Data Center
1/CM	ABSORBANCE
550	0.0018048
562	0.0016512
574	0.0007424
586	0.0001536
598	0.0002688
610	0.0001152
622	0.000192
634	1.28e-05
646	7.68e-05
658	5.12e-05
670	0.0001024
682	0.000192
694	0.0002944
706	0.0007936
718	0.00288
730	0.003008
742	0.0031744
754	0.0009088
766	0.0004096
778	0.000192
790	0.0001792
802	0.0001664
814	0.0002176
826	0.000448
838	0.0006656
850	0.0010496
862	0.0015744
874	0.0022016
886	0.0026112
898	0.0034944
910	0.00512
922	0.0082176
934	0.0119808
946	0.0139392
958	0.014272
970	0.0151424
982	0.0112896
994	0.0094976
1006	0.007168
1018	0.0050688
1030	0.0033536
1042	0.0035456
1054	0.0063616
1066	0.0079232
1078	0.0087936
1090	0.0059776
1102	0.0064256
1114	0.0086144
1126	0.015296
1138	0.0209536
1150	0.0208
1162	0.0112
1174	0.003968
1186	0.0020352
1198	0.0013568
1210	0.001088
1222	0.0009984
1234	0.0010368
1246	0.0013824
1258	0.0015104
1270	0.0021376
1282	0.0030208
1294	0.0032768
1306	0.0028416
1318	0.002304
1330	0.0017664
1342	0.0014208
1354	0.0013824
1366	0.0017792
1378	0.0025984
1390	0.0035712
1402	0.0035584
1414	0.003456
1426	0.0036096
1438	0.0045952
1450	0.0047488
1462	0.0046976
1474	0.00352
1486	0.0025728
1498	0.0020224
1510	0.0016896
1522	0.0015104
1534	0.001472
1546	0.001344
1558	0.0013696
1570	0.0015104
1582	0.0018304
1594	0.002752
1606	0.0049024
1618	0.0104576
1630	0.0168704
1642	0.0183552
1654	0.0142976
1666	0.0089216
1678	0.0119936
1690	0.029632
1702	0.0985984
1714	0.106957
1726	0.118784
1738	0.0205056
1750	0.0085632
1762	0.0048128
1774	0.0028544
1786	0.0018432
1798	0.001344
1810	0.001088
1822	0.00096
1834	0.0008832
1846	0.0007936
1858	0.0006528
1870	0.0004352
1882	0.0003328
1894	0.0003072
1906	0.00032
1918	0.0005504
1930	0.0004992
1942	0.0003712
1954	0.0001536
1966	0.000192
1978	0.0002944
1990	0.0003968
2002	0.000448
2014	0.00032
2026	0.0001792
2038	8.96e-05
2050	0.0001024
2062	0.0001024
2074	0.0001152
2086	0.0001664
2098	0.0001792
2110	0.0002816
2122	0.0003584
2134	0.0003712
2146	0.0003072
2158	0.0003584
2170	0.000448
2182	0.0004864
2194	0.0002688
2206	0.0001792
2218	0.0001664
2230	8.96e-05
2242	2.56e-05
2254	6.4e-05
2266	6.4e-05
2278	8.96e-05
2290	6.4e-05
2302	5.12e-05
2314	5.12e-05
2326	2.56e-05
2338	2.56e-05
2350	5.12e-05
2362	0.000128
2374	0.0002048
2386	0.000192
2398	0.0001792
2410	8.96e-05
2422	5.12e-05
2434	1.28e-05
2446	3.84e-05
2458	1.28e-05
2470	7.68e-05
2482	8.96e-05
2494	0.000128
2506	0.0001536
2518	0.0001664
2530	0.0001024
2542	0.0001152
2554	0.000128
2566	0.0001664
2578	0.000256
2590	0.0003328
2602	0.0005248
2614	0.0006784
2626	0.00096
2638	0.0012288
2650	0.0018688
2662	0.0028288
2674	0.0045184
2686	0.0066944
2698	0.009472
2710	0.0126848
2722	0.0137856
2734	0.0159104
2746	0.0141696
2758	0.011584
2770	0.0096768
2782	0.0101632
2794	0.0118272
2806	0.0113408
2818	0.013632
2830	0.0112896
2842	0.0094336
2854	0.0068864
2866	0.0058496
2878	0.0050688
2890	0.0041088
2902	0.0037248
2914	0.0052992
2926	0.0075136
2938	0.0082176
2950	0.0066176
2962	0.0059904
2974	0.0064128
2986	0.0067968
2998	0.0068992
3010	0.0067584
3022	0.0065024
3034	0.005952
3046	0.0050304
3058	0.0045824
3070	0.0034816
3082	0.0025856
3094	0.0018176
3106	0.0013056
3118	0.0009984
3130	0.0007552
3142	0.000512
3154	0.0003456
3166	0.0002432
3178	0.000192
3190	8.96e-05
3202	0.0001152
3214	7.68e-05
3226	8.96e-05
3238	0.000128
3250	0.000128
3262	3.84e-05
3274	0.0001024
3286	6.4e-05
3298	5.12e-05
3310	0.000128
3322	0.0001536
3334	0.0001664
3346	0.0003328
3358	0.00032
3370	0.0004608
3382	0.000704
3394	0.001472
3406	0.002368
3418	0.0024192
3430	0.0012672
3442	0.0004864
3454	0.0005248
3466	0.0002176
3478	0.0001664
3490	0.0001152
3502	0.0001024
3514	0.000128
3526	7.68e-05
3538	7.68e-05
3550	2.56e-05
3562	5.12e-05
3574	7.68e-05
3586	5.12e-05
3598	1.28e-05
3610	0.0001408
3622	0.0001024
3634	8.96e-05
3646	6.4e-05
3658	0.0001408
3670	8.96e-05
3682	6.4e-05
3694	0.0001024
3706	0.0001152
3718	8.96e-05
3730	0.0001792
3742	0.000128
3754	0.0001152
3766	0.000128
3778	7.68e-05
3790	0.0001664
3802	8.96e-05
3814	0.0001152
3826	0.0001536
3838	0.0001408
