Infrared Spectrum: CROTON ALDEHYDE
Formula: C4 H6 O
CAS: 4170-30-3
State: LIQUID
Boiling point: 100-102 C
Class: COBLENTZ
Instrument: Not specified, most likely a prism, grating, or hybrid spectrometer.
Sampling: TRANSMISSION
Path length: 0.0025 CM
Resolution: 4
Origin: TENNESSEE EASTMAN COMPANY, RESEARCH LABORATORIES
MICROMETERS	TRANSMITTANCE
2.048	0.965
2.08896	0.964
2.12991	0.962
2.17087	0.962
2.21182	0.962
2.25278	0.959
2.29374	0.957
2.33469	0.957
2.37565	0.959
2.4166	0.962
2.45756	0.96
2.49852	0.962
2.53947	0.964
2.58043	0.965
2.62138	0.965
2.66234	0.965
2.7033	0.965
2.74425	0.965
2.78521	0.965
2.82616	0.964
2.86712	0.962
2.90807	0.959
2.94903	0.919
2.98999	0.889
3.03094	0.897
3.0719	0.904
3.11285	0.911
3.15381	0.914
3.19477	0.914
3.23572	0.889
3.27668	0.841
3.31763	0.778
3.35859	0.737
3.39955	0.711
3.4405	0.786
3.48146	0.706
3.52241	0.609
3.56337	0.718
3.60433	0.788
3.64528	0.627
3.68624	0.754
3.72719	0.825
3.76815	0.897
3.80911	0.912
3.85006	0.938
3.89102	0.945
3.93197	0.945
3.97293	0.95
4.01389	0.953
4.05484	0.955
4.0958	0.957
4.13675	0.96
4.17771	0.96
4.21867	0.96
4.25962	0.96
4.30058	0.96
4.34153	0.96
4.38249	0.96
4.42344	0.965
4.4644	0.969
4.50536	0.964
4.54631	0.965
4.58727	0.964
4.62822	0.94
4.66918	0.965
4.71014	0.967
4.75109	0.969
4.79205	0.969
4.833	0.97
4.87396	0.972
4.91492	0.972
4.95587	0.969
4.99683	0.969
5.03778	0.972
5.07874	0.974
5.1197	0.976
5.16065	0.976
5.20161	0.976
5.24256	0.974
5.28352	0.974
5.32448	0.974
5.36543	0.97
5.40639	0.965
5.44734	0.962
5.4883	0.95
5.52926	0.953
5.57021	0.953
5.61117	0.94
5.65212	0.909
5.69308	0.856
5.73404	0.796
5.77499	0.682
5.81595	0.517
5.8569	0.158
5.89786	0.023
5.93881	0.042
5.97977	0.278
6.02073	0.515
6.06168	0.501
6.10264	0.3
6.14359	0.585
6.18455	0.696
6.22551	0.79
6.26646	0.844
6.30742	0.866
6.34837	0.863
6.38933	0.843
6.43029	0.834
6.47124	0.832
6.5122	0.861
6.55315	0.866
6.59411	0.877
6.63507	0.878
6.67602	0.875
6.71698	0.853
6.75793	0.82
6.79889	0.778
6.83985	0.658
6.8808	0.486
6.92176	0.488
6.96271	0.614
7.00367	0.713
7.04463	0.773
7.08558	0.786
7.12654	0.711
7.16749	0.634
7.20845	0.701
7.24941	0.629
7.29036	0.708
7.33132	0.803
7.37227	0.836
7.41323	0.848
7.45419	0.854
7.49514	0.86
7.5361	0.866
7.57705	0.863
7.61801	0.805
7.65896	0.738
7.69992	0.776
7.74088	0.81
7.78183	0.834
7.82279	0.854
7.86374	0.86
7.9047	0.86
7.94566	0.834
7.98661	0.829
8.02757	0.858
8.06852	0.858
8.10948	0.849
8.15044	0.851
8.19139	0.858
8.23235	0.858
8.2733	0.841
8.31426	0.827
8.35522	0.795
8.39617	0.798
8.43713	0.776
8.47808	0.73
8.51904	0.662
8.56	0.537
8.60095	0.32
8.64191	0.172
8.68286	0.127
8.72382	0.201
8.76478	0.368
8.80573	0.529
8.84669	0.645
8.88764	0.704
8.9286	0.752
8.96956	0.781
9.01051	0.791
9.05147	0.791
9.09242	0.79
9.13338	0.769
9.17433	0.703
9.21529	0.552
9.25625	0.474
9.2972	0.621
9.33816	0.73
9.37911	0.793
9.42007	0.812
9.46103	0.819
9.50198	0.813
9.54294	0.788
9.58389	0.783
9.62485	0.802
9.66581	0.812
9.70676	0.817
9.74772	0.817
9.78867	0.803
9.82963	0.779
9.87059	0.744
9.91154	0.733
9.9525	0.749
9.99345	0.754
10.0344	0.744
10.0754	0.703
10.1163	0.634
10.1573	0.532
10.1982	0.392
10.2392	0.266
10.2801	0.201
10.3211	0.196
10.3621	0.291
10.403	0.424
10.444	0.532
10.4849	0.598
10.5259	0.627
10.5668	0.631
10.6078	0.605
10.6487	0.558
10.6897	0.489
10.7307	0.448
10.7716	0.477
10.8126	0.568
10.8535	0.665
10.8945	0.747
10.9354	0.798
10.9764	0.832
11.0174	0.86
11.0583	0.873
11.0993	0.887
11.1402	0.899
11.1812	0.909
11.2221	0.914
11.2631	0.916
11.304	0.919
11.345	0.921
11.386	0.928
11.4269	0.936
11.4679	0.943
11.5088	0.948
11.5498	0.953
11.5907	0.955
11.6317	0.96
11.6726	0.962
11.7136	0.96
11.7546	0.962
11.7955	0.96
11.8365	0.962
11.8774	0.962
11.9184	0.962
11.9593	0.962
12.0003	0.959
12.0413	0.96
12.0822	0.959
12.1232	0.959
12.1641	0.959
12.2051	0.96
12.246	0.96
12.287	0.96
12.3279	0.96
12.3689	0.959
12.4099	0.959
12.4508	0.953
12.4918	0.945
12.5327	0.941
12.5737	0.941
12.6146	0.941
12.6556	0.943
12.6965	0.943
12.7375	0.941
12.7785	0.941
12.8194	0.941
12.8604	0.941
12.9013	0.938
12.9423	0.938
12.9832	0.936
13.0242	0.936
13.0651	0.931
13.1061	0.928
13.1471	0.928
13.188	0.921
13.229	0.918
13.2699	0.914
13.3109	0.914
13.3518	0.911
13.3928	0.909
13.4338	0.906
13.4747	0.894
13.5157	0.887
13.5566	0.88
13.5976	0.872
13.6385	0.856
13.6795	0.849
13.7204	0.846
13.7614	0.839
13.8024	0.832
13.8433	0.825
13.8843	0.822
13.9252	0.822
13.9662	0.827
14.0071	0.827
14.0481	0.829
14.089	0.831
14.13	0.829
14.171	0.829
14.2119	0.827
14.2529	0.825
14.2938	0.82
14.3348	0.82
14.3757	0.817
14.4167	0.812
14.4577	0.807
14.4986	0.8
14.5396	0.796
14.5805	0.791
14.6215	0.783
14.6624	0.779
14.7034	0.774
14.7443	0.771
14.7853	0.767
14.8263	0.761
14.8672	0.752
14.9082	0.744
14.9491	0.735
14.9901	0.732
15.031	0.721
15.072	0.715
15.1129	0.709
15.1539	0.704
15.1949	0.701
15.2358	0.694
15.2768	0.689
15.3177	0.675
15.3587	0.672
15.3996	0.67
15.4406	0.668
15.4816	0.665
15.5225	0.662
15.5635	0.66
15.6044	0.651
15.6454	0.65
15.6863	0.646
15.7273	0.645
15.7682	0.643
15.8092	0.639
15.8502	0.638
15.8911	0.634
15.9321	0.633
15.973	0.633
