Infrared Spectrum: ACETIC ACID, ETHENYL ESTER
Formula: C4 H6 O2
CAS: 108-05-4
State: SOLUTION (10% IN CCl4 FOR 3800-1333, 10% IN CS2 FOR 1333-400 CM^-^1)
Class: COBLENTZ III
Instrument: DOW KBr FOREPRISM-GRATING
Instrument parameters: BLAZED AT 3.5, 12.0, 20.0 MICRON, CHANGED AT 5.0, 7.5, 14.9 MICRON
Sampling: TRANSMISSION
Path length: 0.011, 0.011 CM
Resolution: 4
Origin: DOW CHEMICAL COMPANY
1/CM	TRANSMITTANCE
382.319	0.544
391.699	0.544
401.08	0.576
410.46	0.707
419.84	0.878
429.221	0.933
438.601	0.961
447.981	0.978
457.362	0.953
466.742	0.9709
476.122	1.025
485.503	1.03
494.883	1.038
504.263	1.045
513.644	1.044
523.024	1.045
532.404	1.042
541.785	1.049
551.165	1.045
560.545	1.048
569.926	1.03
579.306	0.979
588.686	0.713
598.067	0.8189
607.447	0.971
616.827	0.97
626.208	0.8751
635.588	0.649
644.969	0.8309
654.349	0.931
663.729	0.994
673.11	1.016
682.49	1.022
691.87	1.001
701.251	0.947
710.631	0.926
720.011	0.982
729.392	1.013
738.772	1.028
748.152	1.025
757.533	1.022
766.913	1.025
776.293	1.018
785.674	1.002
795.054	0.995
804.434	0.982
813.815	0.969
823.195	0.955
832.575	0.887
841.956	0.5662
851.336	0.327
860.716	0.37
870.097	0.042
879.477	0.208
888.857	0.622
898.238	0.8
907.618	0.866
916.998	0.866
926.379	0.824
935.759	0.6711
945.139	0.106
954.52	0.26
963.9	0.652
973.28	0.36
982.661	0.586
992.041	0.645
1001.42	0.458
1010.8	0.1451
1020.18	0.044
1029.56	0.2679
1038.94	0.398
1048.32	0.383
1057.7	0.608
1067.08	0.705
1076.46	0.743
1085.84	0.764
1095.22	0.77
1104.61	0.756
1113.99	0.661
1123.37	0.3682
1132.75	0.026
1142.13	0.002
1151.51	0.183
1160.89	0.475
1170.27	0.544
1179.65	0.45
1189.03	0.241
1198.41	0.065
1207.79	0.004
1217.17	0.005
1226.55	0.006
1235.93	0.068
1245.31	0.252
1254.69	0.235
1264.07	0.53
1273.45	0.631
1282.83	0.627
1292.21	0.2091
1301.59	0.5837
1310.97	0.74
1320.35	0.844
1329.73	0.854
1339.11	0.828
1348.49	0.772
1357.87	0.537
1367.25	0.084
1376.64	0.132
1386.02	0.208
1395.4	0.645
1404.78	0.711
1414.16	0.684
1423.54	0.593
1432.92	0.585
1442.3	0.649
1451.68	0.732
1461.06	0.791
1470.44	0.819
1479.82	0.804
1489.2	0.806
1498.58	0.794
1507.96	0.75
1517.34	0.712
1526.72	0.676
1536.1	0.6
1545.48	0.517
1554.86	0.504
1564.24	0.572
1573.62	0.6
1583	0.617
1592.38	0.672
1601.76	0.704
1611.14	0.676
1620.52	0.624
1629.9	0.64
1639.28	0.332
1648.66	0.005
1658.05	0.467
1667.43	0.709
1676.81	0.776
1686.19	0.795
1695.57	0.775
1704.95	0.758
1714.33	0.675
1723.71	0.57
1733.09	0.489
1742.47	0.216
1751.85	0.008
1761.23	0.002
1770.61	0.008
1779.99	0.2
1789.37	0.475
1798.75	0.644
1808.13	0.72
1817.51	0.715
1826.89	0.772
1836.27	0.822
1845.65	0.83
1855.03	0.815
1864.41	0.788
1873.79	0.863
1883.17	0.887
1892.55	0.882
1901.93	0.925
1911.31	0.947
1920.69	0.955
1930.08	0.955
1939.46	0.95
1948.84	0.934
1958.22	0.951
1967.6	0.945
1976.98	0.911
1986.36	0.848
1995.74	0.898
2005.12	0.922
2014.5	0.928
2023.88	0.934
2033.26	0.9345
2042.64	0.91
2052.02	0.8773
2061.4	0.823
2070.78	0.8387
2080.16	0.8862
2089.54	0.9241
2098.92	0.933
2108.3	0.9265
2117.68	0.9089
2127.06	0.9352
2136.44	0.949
2145.82	0.9465
2155.2	0.9409
2164.58	0.939
2173.96	0.9491
2183.34	0.9521
2192.72	0.9501
2202.1	0.9561
2211.49	0.9549
2220.87	0.9401
2230.25	0.935
2239.63	0.9336
2249.01	0.941
2258.39	0.9378
2267.77	0.9228
2277.15	0.8843
2286.53	0.896
2295.91	0.9328
2305.29	0.945
2314.67	0.947
2324.05	0.951
2333.43	0.9498
2342.81	0.9389
2352.19	0.9294
2361.57	0.9354
2370.95	0.9475
2380.33	0.955
2389.71	0.9544
2399.09	0.9487
2408.47	0.9397
2417.85	0.9339
2427.23	0.9201
2436.61	0.9173
2445.99	0.9483
2455.37	0.9611
2464.75	0.9637
2474.13	0.965
2483.52	0.964
2492.9	0.9582
2502.28	0.9667
2511.66	0.97
2521.04	0.97
2530.42	0.9714
2539.8	0.971
2549.18	0.969
2558.56	0.966
2567.94	0.962
2577.32	0.957
2586.7	0.955
2596.08	0.9583
2605.46	0.9566
2614.84	0.954
2624.22	0.9572
2633.6	0.9617
2642.98	0.9606
2652.36	0.9593
2661.74	0.9566
2671.12	0.955
2680.5	0.958
2689.88	0.961
2699.26	0.959
2708.64	0.9548
2718.02	0.946
2727.4	0.9355
2736.78	0.9235
2746.16	0.9385
2755.55	0.954
2764.93	0.954
2774.31	0.949
2783.69	0.946
2793.07	0.947
2802.45	0.95
2811.83	0.95
2821.21	0.9475
2830.59	0.943
2839.97	0.938
2849.35	0.938
2858.73	0.9394
2868.11	0.937
2877.49	0.937
2886.87	0.935
2896.25	0.933
2905.63	0.9307
2915.01	0.93
2924.39	0.9144
2933.77	0.895
2943.15	0.883
2952.53	0.885
2961.91	0.8844
2971.29	0.8793
2980.67	0.8664
2990.05	0.8485
2999.43	0.8367
3008.81	0.855
3018.19	0.8533
3027.57	0.844
3036.96	0.839
3046.34	0.8325
3055.72	0.8387
3065.1	0.8577
3074.48	0.8553
3083.86	0.8243
3093.24	0.6962
3102.62	0.73
3112	0.8392
3121.38	0.8319
3130.76	0.8333
3140.14	0.8926
3149.52	0.906
3158.9	0.9167
3168.28	0.9238
3177.66	0.9259
3187.04	0.929
3196.42	0.933
3205.8	0.935
3215.18	0.935
3224.56	0.937
3233.94	0.939
3243.32	0.942
3252.7	0.943
3262.08	0.9414
3271.46	0.943
3280.84	0.941
3290.22	0.938
3299.6	0.946
3308.99	0.946
3318.37	0.9487
3327.75	0.946
3337.13	0.947
3346.51	0.946
3355.89	0.947
3365.27	0.95
3374.65	0.949
3384.03	0.95
3393.41	0.947
3402.79	0.9489
3412.17	0.9481
3421.55	0.946
3430.93	0.9465
3440.31	0.943
3449.69	0.944
3459.07	0.941
3468.45	0.9375
3477.83	0.935
3487.21	0.926
3496.59	0.901
3505.97	0.854
3515.35	0.846
3524.73	0.8766
3534.11	0.9131
3543.49	0.936
3552.87	0.939
3562.25	0.9375
3571.63	0.946
3581.01	0.949
3590.4	0.9471
3599.78	0.951
3609.16	0.95
3618.54	0.95
3627.92	0.95
3637.3	0.949
3646.68	0.95
3656.06	0.9494
3665.44	0.949
3674.82	0.949
3684.2	0.951
3693.58	0.951
3702.96	0.953
3712.34	0.954
3721.72	0.953
3731.1	0.953
3740.48	0.953
3749.86	0.954
3759.24	0.954
3768.62	0.954
3778	0.954
3787.38	0.9534
