Infrared Spectrum: ACETIC ACID, VINYL ESTER
Formula: C4 H6 O2
CAS: 108-05-4
State: GAS (100 mmHg, N2 ADDED, TOTAL PRESSURE 600 mmHg)
Class: COBLENTZ
Instrument: DOW KBr FOREPRISM-GRATING
Instrument parameters: GRATING CHANGED AT 5.0, 7.5, 15.0 MICRON
Sampling: TRANSMISSION
Path length: 5 CM
Resolution: 2
Origin: DOW CHEMICAL COMPANY
1/CM	TRANSMITTANCE
380.61	0.946
389.992	0.944
399.375	0.947
408.757	0.968
418.139	0.994
427.522	0.981
436.904	0.95
446.286	0.89
455.669	0.877
465.051	0.908
474.433	0.998
483.816	1.01
493.198	1.017
502.58	1.013
511.963	1.011
521.345	1.005
530.727	1.005
540.11	1.008
549.492	1.007
558.875	0.991
568.257	0.921
577.639	0.822
587.022	0.7
596.404	0.674
605.786	0.651
615.169	0.636
624.551	0.578
633.933	0.6
643.316	0.619
652.698	0.792
662.08	0.921
671.463	0.956
680.845	0.927
690.227	0.902
699.61	0.889
708.992	0.875
718.374	0.901
727.757	0.928
737.139	0.946
746.521	0.937
755.904	0.922
765.286	0.885
774.668	0.876
784.051	0.889
793.433	0.889
802.815	0.879
812.198	0.834
821.58	0.7
830.962	0.469
840.345	0.263
849.727	0.168
859.11	0.119
868.492	0.042
877.874	0.127
887.257	0.199
896.639	0.507
906.021	0.802
915.404	0.745
924.786	0.504
934.168	0.306
943.551	0.17
952.933	0.135
962.315	0.178
971.698	0.219
981.08	0.215
990.462	0.331
999.845	0.139
1009.23	0.018
1018.61	0.02
1027.99	0.031
1037.37	0.159
1046.76	0.322
1056.14	0.357
1065.52	0.389
1074.9	0.438
1084.29	0.502
1093.67	0.553
1103.05	0.569
1112.43	0.517
1121.82	0.3239
1131.2	0.008
1140.58	0.008
1149.96	0.01
1159.34	0.0371
1168.73	0.438
1178.11	0.372
1187.49	0.19
1196.87	0.011
1206.26	0.011
1215.64	0.011
1225.02	0.011
1234.4	0.013
1243.79	0.039
1253.17	0.075
1262.55	0.1481
1271.93	0.425
1281.31	0.2359
1290.7	0.101
1300.08	0.106
1309.46	0.2871
1318.84	0.697
1328.23	0.758
1337.61	0.742
1346.99	0.632
1356.37	0.2669
1365.76	0.015
1375.14	0.01
1384.52	0.024
1393.9	0.158
1403.29	0.4841
1412.67	0.611
1422.05	0.582
1431.43	0.527
1440.81	0.555
1450.2	0.578
1459.58	0.633
1468.96	0.67
1478.34	0.693
1487.73	0.728
1497.11	0.75
1506.49	0.763
1515.87	0.777
1525.26	0.793
1534.64	0.808
1544.02	0.793
1553.4	0.747
1562.79	0.715
1572.17	0.683
1581.55	0.67
1590.93	0.662
1600.31	0.651
1609.7	0.604
1619.08	0.502
1628.46	0.3979
1637.84	0.013
1647.23	0.008
1656.61	0.008
1665.99	0.2001
1675.37	0.6261
1684.76	0.736
1694.14	0.76
1703.52	0.779
1712.9	0.795
1722.29	0.728
1731.67	0.623
1741.05	0.4408
1750.43	0.1548
1759.81	0.005
1769.2	0.005
1778.58	0.005
1787.96	0.008
1797.34	0.008
1806.73	0.1301
1816.11	0.5471
1825.49	0.7
1834.87	0.723
1844.26	0.696
1853.64	0.652
1863.02	0.636
1872.4	0.661
1881.78	0.7581
1891.17	0.786
1900.55	0.803
1909.93	0.847
1919.31	0.902
1928.7	0.905
1938.08	0.899
1947.46	0.896
1956.84	0.898
1966.23	0.899
1975.61	0.876
1984.99	0.8
1994.37	0.799
2003.76	0.821
2013.14	0.883
2022.52	0.888
2031.9	0.883
2041.28	0.859
2050.67	0.7674
2060.05	0.6581
2069.43	0.649
2078.81	0.681
2088.2	0.8628
2097.58	0.888
2106.96	0.883
2116.34	0.869
2125.73	0.87
2135.11	0.885
2144.49	0.899
2153.87	0.893
2163.26	0.892
2172.64	0.896
2182.02	0.912
2191.4	0.925
2200.78	0.934
2210.17	0.928
2219.55	0.9091
2228.93	0.895
2238.31	0.899
2247.7	0.909
2257.08	0.918
2266.46	0.915
2275.84	0.8882
2285.23	0.8251
2294.61	0.831
2303.99	0.8766
2313.37	0.95
2322.76	0.944
2332.14	0.9301
2341.52	0.921
2350.9	0.922
2360.28	0.927
2369.67	0.928
2379.05	0.9399
2388.43	0.947
2397.81	0.941
2407.2	0.934
2416.58	0.9121
2425.96	0.8793
2435.34	0.873
2444.73	0.8849
2454.11	0.9278
2463.49	0.9469
2472.87	0.95
2482.25	0.95
2491.64	0.9519
2501.02	0.957
2510.4	0.9649
2519.78	0.969
2529.17	0.972
2538.55	0.973
2547.93	0.973
2557.31	0.969
2566.7	0.962
2576.08	0.952
2585.46	0.953
2594.84	0.956
2604.23	0.956
2613.61	0.952
2622.99	0.952
2632.37	0.957
2641.75	0.969
2651.14	0.968
2660.52	0.968
2669.9	0.9719
2679.28	0.979
2688.67	0.981
2698.05	0.978
2707.43	0.969
2716.81	0.9661
2726.2	0.9601
2735.58	0.9471
2744.96	0.936
2754.34	0.936
2763.73	0.9516
2773.11	0.959
2782.49	0.957
2791.87	0.957
2801.25	0.9647
2810.64	0.966
2820.02	0.962
2829.4	0.957
2838.78	0.9363
2848.17	0.925
2857.55	0.9338
2866.93	0.9408
2876.31	0.947
2885.7	0.946
2895.08	0.941
2904.46	0.9273
2913.84	0.9081
2923.23	0.9079
2932.61	0.8954
2941.99	0.8376
2951.37	0.8194
2960.75	0.8186
2970.14	0.8529
2979.52	0.856
2988.9	0.8384
2998.28	0.8317
3007.67	0.835
3017.05	0.8212
3026.43	0.766
3035.81	0.7412
3045.2	0.7137
3054.58	0.7021
3063.96	0.6941
3073.34	0.7334
3082.72	0.7271
3092.11	0.6183
3101.49	0.509
3110.87	0.509
3120.25	0.6979
3129.64	0.6933
3139.02	0.6782
3148.4	0.8806
3157.78	0.9528
3167.17	0.965
3176.55	0.969
3185.93	0.969
3195.31	0.9729
3204.7	0.976
3214.08	0.979
3223.46	0.981
3232.84	0.981
3242.22	0.981
3251.61	0.981
3260.99	0.981
3270.37	0.979
3279.75	0.979
3289.14	0.976
3298.52	0.979
3307.9	0.982
3317.28	0.982
3326.67	0.981
3336.05	0.979
3345.43	0.981
3354.81	0.985
3364.2	0.9841
3373.58	0.982
3382.96	0.981
3392.34	0.9838
3401.72	0.985
3411.11	0.984
3420.49	0.984
3429.87	0.9813
3439.25	0.981
3448.64	0.982
3458.02	0.9849
3467.4	0.986
3476.78	0.986
3486.17	0.985
3495.55	0.9822
3504.93	0.9781
3514.31	0.9593
3523.69	0.9042
3533.08	0.8358
3542.46	0.8015
3551.84	0.7743
3561.22	0.8697
3570.61	0.9804
3579.99	0.9919
3589.37	0.994
3598.75	0.9967
3608.14	0.9998
3617.52	1.001
3626.9	1.002
3636.28	1.002
3645.67	1.002
3655.05	1.002
3664.43	1.002
3673.81	1.002
3683.19	1.002
3692.58	1.001
3701.96	1.001
3711.34	1.002
3720.72	1.004
3730.11	1.004
3739.49	1.004
3748.87	1.002
3758.25	1.002
3767.64	1.001
3777.02	1.001
3786.4	1.001
