Infrared Spectrum: Acetic acid ethenyl ester
Formula: C 4 H 6 O 2
CAS: 108-05-4
State: gas
Origin: Sadtler Research Labs Under US-EPA Contract
1/CM	ABSORBANCE
450	0.00945534
462	0.00849378
474	0.00552897
486	0.0056091
498	0.00665079
510	8.013e-05
522	0.00552897
534	0.00552897
546	0.008013
558	0.00737196
570	0.00841365
582	0.00905469
594	0.0194716
606	0.0174683
618	0.0174683
630	0.0173081
642	0.0128208
654	0.0072117
666	0.00136221
678	0.00176286
690	0.00168273
702	0.00256416
714	0.00312507
726	0.00272442
738	0.00336546
750	0.00328533
762	0.00368598
774	0.00328533
786	0.00336546
798	0.00456741
810	0.00552897
822	0.0096156
834	0.0201928
846	0.0337347
858	0.0492799
870	0.0637835
882	0.0460747
894	0.0332539
906	0.0167472
918	0.0162664
930	0.0275647
942	0.0398246
954	0.0481581
966	0.0435907
978	0.0396643
990	0.0396643
1002	0.0588154
1014	0.097999
1026	0.0947938
1038	0.0557705
1050	0.028366
1062	0.0245198
1074	0.0247602
1086	0.0237185
1098	0.0216351
1110	0.0237986
1122	0.0569724
1134	0.225486
1146	0.265391
1158	0.189988
1170	0.0365393
1182	0.0620206
1194	0.195677
1206	0.572769
1218	0.781107
1230	0.596488
1242	0.162984
1254	0.0697131
1266	0.0395842
1278	0.0260422
1290	0.0475171
1302	0.0467158
1314	0.0254813
1326	0.0104169
1338	0.00913482
1350	0.0194716
1362	0.0699535
1374	0.122839
1386	0.115307
1398	0.0356578
1410	0.0114586
1422	0.00977586
1434	0.0121798
1446	0.0108977
1458	0.00913482
1470	0.00833352
1482	0.00705144
1494	0.00608988
1506	0.00625014
1518	0.00512832
1530	0.00472767
1542	0.00488793
1554	0.00657066
1566	0.00785274
1578	0.00993612
1590	0.0120996
1602	0.0136221
1614	0.0174683
1626	0.0322123
1638	0.0977586
1650	0.130772
1662	0.121317
1674	0.0177889
1686	0.00729183
1698	0.00617001
1710	0.00665079
1722	0.00833352
1734	0.0155452
1746	0.0422285
1758	0.116669
1770	0.307619
1782	0.306177
1794	0.361947
1806	0.120676
1818	0.0340552
1830	0.0111381
1842	0.00913482
1854	0.00985599
1866	0.00969573
1878	0.00833352
1890	0.00608988
1902	0.00456741
1914	0.00296481
1926	0.00152247
1938	0.00224364
1950	0.0024039
1962	0.00216351
1974	0.00312507
1986	0.00448728
1998	0.00456741
2010	0.00272442
2022	0.00256416
2034	0.0032052
2046	0.00528858
2058	0.00745209
2070	0.00761235
2082	0.00408663
2094	0.00312507
2106	0.00272442
2118	0.00264429
2130	0.00272442
2142	0.00216351
2154	0.00192312
2166	0.00192312
2178	0.00128208
2190	0.00072117
2202	0.00128208
2214	0.0016026
2226	0.00176286
2238	0.00184299
2250	0.00136221
2262	0.00152247
2274	0.00280455
2286	0.00336546
2298	0.00256416
2310	0.00168273
2322	0.00192312
2334	0.00096156
2346	0.00152247
2358	0.00176286
2370	0.00056091
2382	0.00064104
2394	0.00104169
2406	0.00144234
2418	0.00192312
2430	0.00192312
2442	0.00200325
2454	0.00096156
2466	0.00056091
2478	0.00096156
2490	0.00032052
2502	0.00048078
2514	0.00048078
2526	8.013e-05
2538	0.00056091
2550	8.013e-05
2562	0.00064104
2574	0.00064104
2586	0.00064104
2598	0.0008013
2610	0.00072117
2622	0.00112182
2634	0.00128208
2646	0.00064104
2658	0.00088143
2670	0.00064104
2682	0.00064104
2694	0.00056091
2706	0.00040065
2718	0.0008013
2730	0.00072117
2742	0.00120195
2754	0.00128208
2766	0.00176286
2778	0.00168273
2790	0.00136221
2802	0.00152247
2814	0.00112182
2826	0.00120195
2838	0.00128208
2850	0.00128208
2862	0.00128208
2874	0.0016026
2886	0.00088143
2898	0.00096156
2910	0.00112182
2922	0.00136221
2934	0.00288468
2946	0.00432702
2958	0.0048078
2970	0.00464754
2982	0.00392637
2994	0.00488793
3006	0.0048078
3018	0.00496806
3030	0.00592962
3042	0.00777261
3054	0.00833352
3066	0.00889443
3078	0.0088143
3090	0.0134618
3102	0.0137824
3114	0.0112182
3126	0.00841365
3138	0.00793287
3150	0.00424689
3162	0.00216351
3174	0.00120195
3186	0.00120195
3198	0.0008013
3210	0.00064104
3222	0.00120195
3234	0.00064104
3246	0.0008013
3258	0.00064104
3270	0.0008013
3282	0.00072117
3294	0.00112182
3306	0.00096156
3318	0.0008013
3330	0.0008013
3342	0.00128208
3354	0.0008013
3366	0.00088143
3378	0.0008013
3390	0.00088143
3402	0.0008013
3414	0.00088143
3426	0.0008013
3438	0.0008013
3450	0.00096156
3462	0.00096156
3474	0.00048078
3486	0.00096156
3498	0.00136221
3510	0.00096156
3522	0.00136221
3534	0.00384624
3546	0.00384624
3558	0.0040065
3570	0.00152247
3582	0.00104169
3594	0.00056091
3606	0.00048078
3618	0.00056091
3630	0.00064104
3642	0.00152247
3654	0.00104169
3666	0.00112182
3678	0.00088143
3690	0.00120195
3702	0.00104169
3714	0.00056091
3726	0.00096156
3738	0.00056091
3750	0.00032052
3762	8.013e-05
3774	0.00048078
3786	0.00048078
3798	0.00048078
3810	0.00040065
3822	0.00040065
3834	0.00024039
3846	0.00024039
3858	0.00120195
3870	0.00024039
3882	8.013e-05
3894	0.00016026
3906	0.00016026
3918	0.00120195
3930	0.00072117
3942	0.00112182
3954	0.00120195
3966	0.00176286
