Infrared Spectrum: Cyclopentanol
Formula: C5 H10 O
CAS: 96-41-3
State: SOLUTION (10% CCl4 FOR 3800-1340, 10% CS2 FOR 1340-450 CM^-^1)
Boiling point: 139 C
Class: COBLENTZ
Instrument: DOW KBr FOREPRISM-GRATING
Instrument parameters: BLAZED AT 3.5, 12.0, 20.0 MICRON AND CHANGED AT 5.0, 7.5, 14.9 MICRON
Sampling: TRANSMISSION
Path length: 0.011 CM, 0.011 CM
Resolution: 2
Origin: DOW CHEMICAL COMPANY
1/CM	TRANSMITTANCE
453	0.6867
462	0.6883
471	0.6872
480	0.7006
489	0.7111
498	0.7118
507	0.7065
516	0.6984
525	0.6857
534	0.6653
543	0.6556
552	0.6626
561	0.6631
570	0.6554
579	0.6472
588	0.6411
597	0.6362
606	0.6292
615	0.6226
624	0.617
633	0.6083
642	0.5921
651	0.5762
660	0.593
669	0.598
678	0.608
687	0.6175
696	0.6167
705	0.6339
714	0.6458
723	0.6568
732	0.6693
741	0.6825
750	0.6928
759	0.701
768	0.7067
777	0.7085
786	0.7089
795	0.7065
804	0.696
813	0.6737
822	0.622
831	0.5496
840	0.5492
849	0.5907
858	0.6323
867	0.6739
876	0.6935
885	0.6404
894	0.6298
903	0.7161
912	0.7265
921	0.6861
930	0.5788
939	0.6594
948	0.6955
957	0.6938
966	0.6651
975	0.488
984	0.153
993	0.1277
1002	0.271
1011	0.431
1020	0.5017
1029	0.3482
1038	0.4575
1047	0.4748
1056	0.363
1065	0.329
1074	0.3403
1083	0.4344
1092	0.6338
1101	0.7039
1110	0.7365
1119	0.7296
1128	0.6928
1137	0.6142
1146	0.4912
1155	0.4064
1164	0.378
1173	0.3494
1182	0.4396
1191	0.4828
1200	0.5106
1209	0.5244
1218	0.5376
1227	0.5575
1236	0.546
1245	0.5255
1254	0.5049
1263	0.4843
1272	0.4637
1281	0.455
1290	0.4303
1299	0.3832
1308	0.3792
1317	0.4714
1326	0.485
1335	0.3058
1344	0.3348
1353	0.4576
1362	0.5936
1371	0.6238
1380	0.6031
1389	0.5766
1398	0.5407
1407	0.4877
1416	0.5072
1425	0.5059
1434	0.4202
1443	0.4316
1452	0.3823
1461	0.5305
1470	0.5736
1479	0.6291
1488	0.6941
1497	0.6931
1506	0.6624
1515	0.6315
1524	0.599
1533	0.5512
1542	0.466
1551	0.4297
1560	0.4828
1569	0.5649
1578	0.5899
1587	0.6162
1596	0.6926
1605	0.7504
1614	0.7711
1623	0.7758
1632	0.7857
1641	0.8014
1650	0.809
1659	0.8147
1668	0.8206
1677	0.8252
1686	0.8196
1695	0.7985
1704	0.76
1713	0.7128
1722	0.6542
1731	0.5862
1740	0.5993
1749	0.5891
1758	0.7922
1767	0.8368
1776	0.8493
1785	0.8539
1794	0.8564
1803	0.8584
1812	0.8575
1821	0.8549
1830	0.8534
1839	0.8546
1848	0.8546
1857	0.8568
1866	0.8592
1875	0.8614
1884	0.8631
1893	0.8649
1902	0.8641
1911	0.8621
1920	0.8631
1929	0.8639
1938	0.8661
1947	0.8633
1956	0.8656
1965	0.8647
1974	0.8615
1983	0.8585
1992	0.8563
2001	0.871
2010	0.8768
2019	0.8768
2028	0.8782
2037	0.878
2046	0.8782
2055	0.8788
2064	0.8798
2073	0.881
2082	0.881
2091	0.8787
2100	0.8775
2109	0.8767
2118	0.8761
2127	0.8752
2136	0.8741
2145	0.873
2154	0.8721
2163	0.8715
2172	0.8708
2181	0.8718
2190	0.873
2199	0.8735
2208	0.8738
2217	0.8737
2226	0.8725
2235	0.8712
2244	0.8699
2253	0.8675
2262	0.8651
2271	0.8615
2280	0.8582
2289	0.8567
2298	0.8581
2307	0.8584
2316	0.8567
2325	0.8563
2334	0.8641
2343	0.8625
2352	0.8723
2361	0.874
2370	0.8738
2379	0.8732
2388	0.8727
2397	0.8714
2406	0.8702
2415	0.869
2424	0.8678
2433	0.8654
2442	0.8625
2451	0.8597
2460	0.857
2469	0.8547
2478	0.8564
2487	0.8592
2496	0.8566
2505	0.8541
2514	0.8531
2523	0.8523
2532	0.8501
2541	0.8463
2550	0.8406
2559	0.8347
2568	0.8291
2577	0.8236
2586	0.8184
2595	0.8143
2604	0.8115
2613	0.8118
2622	0.8115
2631	0.8078
2640	0.8025
2649	0.7985
2658	0.7958
2667	0.7933
2676	0.7905
2685	0.7876
2694	0.7849
2703	0.7818
2712	0.7789
2721	0.7758
2730	0.7725
2739	0.7691
2748	0.7656
2757	0.7611
2766	0.7561
2775	0.7483
2784	0.7371
2793	0.7215
2802	0.7019
2811	0.678
2820	0.6451
2829	0.6053
2838	0.5271
2847	0.3647
2856	0.2057
2865	0.1142
2874	0.0864
2883	0.1592
2892	0.1477
2901	0.1004
2910	0.0777
2919	0.0707
2928	0.0515
2937	0.0207
2946	0.0062
2955	0.0001
2964	0.0035
2973	0.0434
2982	0.2909
2991	0.3709
3000	0.4902
3009	0.5981
3018	0.6511
3027	0.6876
3036	0.7049
3045	0.7132
3054	0.7162
3063	0.714
3072	0.7091
3081	0.699
3090	0.6865
3099	0.673
3108	0.6606
3117	0.6478
3126	0.6337
3135	0.6152
3144	0.5864
3153	0.5568
3162	0.5292
3171	0.5042
3180	0.4771
3189	0.4474
3198	0.4158
3207	0.3789
3216	0.3287
3225	0.2971
3234	0.2688
3243	0.2401
3252	0.2104
3261	0.1822
3270	0.156
3279	0.1372
3288	0.1232
3297	0.1102
3306	0.0965
3315	0.0867
3324	0.0801
3333	0.078
3342	0.0787
3351	0.0803
3360	0.0835
3369	0.0883
3378	0.0935
3387	0.0992
3396	0.1055
3405	0.1164
3414	0.1308
3423	0.15
3432	0.169
3441	0.1837
3450	0.2022
3459	0.2282
3468	0.2581
3477	0.2888
3486	0.3232
3495	0.3544
3504	0.3884
3513	0.4323
3522	0.4901
3531	0.5298
3540	0.571
3549	0.626
3558	0.6806
3567	0.7075
3576	0.7292
3585	0.7271
3594	0.6836
3603	0.615
3612	0.5464
3621	0.6458
3630	0.7887
3639	0.813
3648	0.8084
3657	0.7803
3666	0.7815
3675	0.8249
3684	0.8502
3693	0.8609
3702	0.866
3711	0.8717
3720	0.8762
3729	0.8802
3738	0.8823
3747	0.8837
3756	0.8836
3765	0.8835
3774	0.8831
3783	0.8827
3792	0.8818
