Infrared Spectrum: Cyclopentanol
Formula: C 5 H 10 O
CAS: 96-41-3
State: gas
Instrument: HP-GC/MS/IRD
Origin: NIST Mass Spectrometry Data Center
1/CM	ABSORBANCE
550	0.000207
562	0.0001426
574	0.0001012
586	0.0001127
598	9.66e-05
610	0.0001012
622	3.68e-05
634	6.44e-05
646	5.29e-05
658	5.75e-05
670	4.6e-05
682	5.06e-05
694	6.67e-05
706	8.97e-05
718	6.67e-05
730	9.89e-05
742	0.0001518
754	0.0001242
766	0.0001817
778	0.0002162
790	0.0003404
802	0.0004577
814	0.0006831
826	0.0008855
838	0.0008648
850	0.0006992
862	0.0005635
874	0.0005704
886	0.0007176
898	0.0009177
910	0.0011868
922	0.001288
934	0.0013501
946	0.0013386
958	0.0015042
970	0.0021942
982	0.0036547
994	0.0049013
1006	0.0052463
1018	0.004761
1030	0.0042918
1042	0.0042527
1054	0.0041653
1066	0.0040135
1078	0.0037559
1090	0.0031671
1102	0.0023276
1114	0.0019527
1126	0.0019573
1138	0.0020309
1150	0.0022011
1162	0.0025898
1174	0.0028359
1186	0.0029095
1198	0.0027968
1210	0.0026059
1222	0.0025507
1234	0.0025783
1246	0.0026266
1258	0.0025737
1270	0.0023897
1282	0.0022218
1294	0.0020447
1306	0.0018791
1318	0.0019159
1330	0.0020608
1342	0.0021091
1354	0.0019918
1366	0.0018101
1378	0.0017296
1390	0.001587
1402	0.0013248
1414	0.0011017
1426	0.00115
1438	0.0013662
1450	0.0014835
1462	0.0013363
1474	0.0011132
1486	0.0008372
1498	0.0005474
1510	0.0003266
1522	0.000207
1534	0.0001265
1546	0.0001081
1558	8.51e-05
1570	5.52e-05
1582	5.75e-05
1594	6.21e-05
1606	4.37e-05
1618	4.37e-05
1630	3.91e-05
1642	5.29e-05
1654	2.53e-05
1666	5.06e-05
1678	4.6e-05
1690	4.37e-05
1702	2.99e-05
1714	6.44e-05
1726	5.06e-05
1738	5.75e-05
1750	0.0001104
1762	0.0001288
1774	9.43e-05
1786	7.82e-05
1798	6.44e-05
1810	5.75e-05
1822	7.36e-05
1834	6.44e-05
1846	5.75e-05
1858	1.61e-05
1870	5.75e-05
1882	4.6e-05
1894	3.91e-05
1906	2.3e-05
1918	4.14e-05
1930	2.53e-05
1942	1.38e-05
1954	4.83e-05
1966	3.45e-05
1978	3.22e-05
1990	4.6e-05
2002	5.52e-05
2014	3.91e-05
2026	1.38e-05
2038	2.3e-05
2050	3.45e-05
2062	2.99e-05
2074	4.6e-05
2086	3.45e-05
2098	2.3e-05
2110	5.52e-05
2122	6.21e-05
2134	6.9e-05
2146	9.43e-05
2158	9.66e-05
2170	8.28e-05
2182	7.82e-05
2194	7.82e-05
2206	6.9e-05
2218	7.59e-05
2230	6.21e-05
2242	6.67e-05
2254	4.37e-05
2266	6.21e-05
2278	5.98e-05
2290	7.82e-05
2302	8.28e-05
2314	8.05e-05
2326	7.59e-05
2338	8.74e-05
2350	7.59e-05
2362	7.82e-05
2374	7.36e-05
2386	4.83e-05
2398	5.29e-05
2410	3.22e-05
2422	4.14e-05
2434	3.68e-05
2446	2.99e-05
2458	2.76e-05
2470	3.91e-05
2482	2.99e-05
2494	4.14e-05
2506	6.9e-06
2518	3.22e-05
2530	2.76e-05
2542	4.37e-05
2554	4.83e-05
2566	5.98e-05
2578	8.28e-05
2590	8.97e-05
2602	0.0001357
2614	0.000138
2626	0.0001242
2638	0.000138
2650	0.0001334
2662	0.0001426
2674	0.0001725
2686	0.0001472
2698	0.0001794
2710	0.0001817
2722	0.0002277
2734	0.0002323
2746	0.000253
2758	0.0002691
2770	0.0003174
2782	0.0003473
2794	0.0004232
2806	0.0005589
2818	0.0007981
2830	0.0012305
2842	0.0019964
2854	0.0034592
2866	0.0054602
2878	0.0073002
2890	0.0086779
2902	0.0099314
2914	0.0109986
2926	0.0130594
2938	0.0163208
2950	0.0199226
2962	0.0218592
2974	0.0189313
2986	0.0117944
2998	0.0060053
3010	0.0027462
3022	0.0015065
3034	0.0008809
3046	0.0005474
3058	0.0003795
3070	0.0002875
3082	0.0002507
3094	0.0002047
3106	0.0001564
3118	0.0001196
3130	0.0001081
3142	9.89e-05
3154	8.97e-05
3166	8.05e-05
3178	9.2e-05
3190	6.44e-05
3202	7.36e-05
3214	3.45e-05
3226	4.83e-05
3238	4.6e-05
3250	1.38e-05
3262	1.38e-05
3274	4.37e-05
3286	5.29e-05
3298	3.22e-05
3310	7.82e-05
3322	8.74e-05
3334	5.06e-05
3346	6.67e-05
3358	8.97e-05
3370	7.59e-05
3382	9.2e-05
3394	0.000115
3406	0.0001495
3418	0.0001357
3430	0.0001472
3442	0.0001311
3454	0.0001633
3466	0.0001518
3478	0.0001495
3490	0.0001104
3502	0.0001495
3514	0.0001288
3526	0.000138
3538	0.000115
3550	0.0001288
3562	0.0001863
3574	0.000115
3586	0.0001472
3598	0.0001771
3610	0.000253
3622	0.0005198
3634	0.001058
3646	0.0018216
3658	0.0020677
3670	0.0016261
3682	0.0007199
3694	0.000322
3706	0.0002185
3718	0.0001955
3730	0.0001472
3742	0.000161
3754	0.0001702
3766	0.0001656
3778	0.0001472
3790	0.0001748
3802	0.0002093
3814	0.00023
3826	0.0002714
3838	0.0002185
