Infrared Spectrum: 1,2-PROPANEDITHIOL
Formula: C3 H8 S2
CAS: 814-67-5
State: LIQUID (NEAT)
Class: COBLENTZ III
Instrument: BAIRD (GRATING)
Instrument parameters: NaCl PRISM
Sampling: TRANSMISSION
Path length: 0.003 CM
Resolution: 2
Origin: WYANDOTTE CHEMICALS CORP.
1/CM	TRANSMITTANCE
4000	0.941
3991	0.9421
3982	0.9434
3973	0.9444
3964	0.9447
3955	0.9449
3946	0.9451
3937	0.945
3928	0.9448
3919	0.9444
3910	0.9441
3901	0.9438
3892	0.9435
3883	0.9433
3874	0.9436
3865	0.9441
3856	0.9447
3847	0.946
3838	0.9474
3829	0.949
3820	0.9502
3811	0.9513
3802	0.951
3793	0.9489
3784	0.946
3775	0.943
3766	0.94
3757	0.9378
3748	0.9362
3739	0.9348
3730	0.9333
3721	0.9323
3712	0.932
3703	0.932
3694	0.932
3685	0.9321
3676	0.9321
3667	0.932
3658	0.9317
3649	0.9314
3640	0.9302
3631	0.9283
3622	0.9255
3613	0.9224
3604	0.9187
3595	0.9156
3586	0.914
3577	0.9142
3568	0.9164
3559	0.9187
3550	0.9209
3541	0.9228
3532	0.9241
3523	0.9239
3514	0.9218
3505	0.92
3496	0.9178
3487	0.916
3478	0.9144
3469	0.9128
3460	0.9112
3451	0.911
3442	0.9118
3433	0.9132
3424	0.9149
3415	0.9166
3406	0.9177
3397	0.9188
3388	0.9197
3379	0.9161
3370	0.91
3361	0.9044
3352	0.8998
3343	0.8966
3334	0.8963
3325	0.898
3316	0.8997
3307	0.9015
3298	0.9033
3289	0.9051
3280	0.9068
3271	0.908
3262	0.9089
3253	0.9095
3244	0.9097
3235	0.9098
3226	0.91
3217	0.9086
3208	0.9059
3199	0.9034
3190	0.9021
3181	0.9009
3172	0.9008
3163	0.9012
3154	0.9016
3145	0.9024
3136	0.9034
3127	0.904
3118	0.9044
3109	0.9048
3100	0.9043
3091	0.9034
3082	0.9014
3073	0.8975
3064	0.8933
3055	0.8883
3046	0.8833
3037	0.8778
3028	0.8706
3019	0.8613
3010	0.8475
3001	0.8039
2992	0.6461
2983	0.4874
2974	0.3277
2965	0.1731
2956	0.1526
2947	0.2914
2938	0.3564
2929	0.3222
2920	0.2491
2911	0.2184
2902	0.3121
2893	0.4144
2884	0.5173
2875	0.5628
2866	0.5416
2857	0.5112
2848	0.5364
2839	0.653
2830	0.7692
2821	0.7882
2812	0.7693
2803	0.7597
2794	0.7984
2785	0.8496
2776	0.8624
2767	0.8685
2758	0.873
2749	0.8762
2740	0.8774
2731	0.877
2722	0.8727
2713	0.8657
2704	0.8618
2695	0.8633
2686	0.8675
2677	0.8709
2668	0.8736
2659	0.8745
2650	0.874
2641	0.8702
2632	0.859
2623	0.8377
2614	0.8235
2605	0.8141
2596	0.8051
2587	0.7941
2578	0.7743
2569	0.7219
2560	0.6491
2551	0.5756
2542	0.5015
2533	0.4269
2524	0.4004
2515	0.4736
2506	0.5596
2497	0.6461
2488	0.7234
2479	0.7512
2470	0.7774
2461	0.7997
2452	0.819
2443	0.8366
2434	0.8461
2425	0.8518
2416	0.8598
2407	0.8689
2398	0.8765
2389	0.8828
2380	0.8888
2371	0.895
2362	0.8998
2353	0.9044
2344	0.9088
2335	0.9125
2326	0.91
2317	0.9068
2308	0.9036
2299	0.9016
2290	0.9048
2281	0.9104
2272	0.9171
2263	0.9203
2254	0.9228
2245	0.9271
2236	0.9299
2227	0.9305
2218	0.9296
2209	0.9287
2200	0.9281
2191	0.9278
2182	0.9277
2173	0.9277
2164	0.9278
2155	0.9285
2146	0.93
2137	0.9336
2128	0.9404
2119	0.9477
2110	0.9518
2101	0.9496
2092	0.9471
2083	0.9462
2074	0.9459
2065	0.9461
2056	0.9468
2047	0.9475
2038	0.9483
2029	0.9492
2020	0.9501
2011	0.9509
2002	0.9512
1993	0.9514
1984	0.9511
1975	0.9505
1966	0.9475
1957	0.9435
1948	0.9417
1939	0.9447
1930	0.9487
1921	0.9485
1912	0.9459
1903	0.9489
1894	0.9505
1885	0.952
1876	0.9518
1867	0.9518
1858	0.9517
1849	0.9516
1840	0.9515
1831	0.9514
1822	0.9516
1813	0.9518
1804	0.9518
1795	0.9502
1786	0.9415
1777	0.9293
1768	0.929
1759	0.9296
1750	0.9316
1741	0.932
1732	0.93
1723	0.9262
1714	0.9233
1705	0.9148
1696	0.906
1687	0.9077
1678	0.9116
1669	0.9141
1660	0.9124
1651	0.9065
1642	0.9071
1633	0.9078
1624	0.8967
1615	0.9039
1606	0.9118
1597	0.9189
1588	0.9115
1579	0.904
1570	0.9036
1561	0.8921
1552	0.8853
1543	0.8821
1534	0.8805
1525	0.88
1516	0.8768
1507	0.8583
1498	0.8378
1489	0.809
1480	0.7701
1471	0.5778
1462	0.1699
1453	0.2634
1444	0.4506
1435	0.5844
1426	0.4264
1417	0.5377
1408	0.7215
1399	0.7603
1390	0.6865
1381	0.289
1372	0.5451
1363	0.7872
1354	0.8444
1345	0.851
1336	0.823
1327	0.7095
1318	0.5864
1309	0.6453
1300	0.7633
1291	0.7022
1282	0.5528
1273	0.363
1264	0.5293
1255	0.4188
1246	0.4888
1237	0.4508
1228	0.5533
1219	0.6761
1210	0.6468
1201	0.5129
1192	0.4693
1183	0.4582
1174	0.568
1165	0.7258
1156	0.7949
1147	0.8193
1138	0.8149
1129	0.7289
1120	0.6375
1111	0.6761
1102	0.7293
1093	0.6944
1084	0.584
1075	0.6157
1066	0.6158
1057	0.703
1048	0.7281
1039	0.6576
1030	0.4568
1021	0.3866
1012	0.5223
1003	0.7121
994	0.7971
985	0.8325
976	0.8433
967	0.8449
958	0.8335
949	0.7725
940	0.7358
931	0.7208
922	0.7608
913	0.7511
904	0.7064
895	0.7065
886	0.7071
877	0.7017
868	0.6598
859	0.715
850	0.7475
841	0.7964
832	0.8385
823	0.8495
814	0.8527
805	0.8418
796	0.831
787	0.813
778	0.7664
769	0.7588
760	0.7115
751	0.7306
742	0.7701
733	0.7375
724	0.6561
715	0.6389
706	0.6052
697	0.6661
688	0.7062
679	0.7089
670	0.5956
661	0.5164
652	0.6188
643	0.6834
634	0.6938
625	0.6743
