Infrared Spectrum: Propane, 2-nitro-
Formula: C3 H7 N O2
CAS: 79-46-9
State: GAS (20 mmHg, N2 ADDED, TOTAL PRESSURE 600 mmHg)
Class: COBLENTZ
Instrument: DOW KBr FOREPRISM-GRATING
Instrument parameters: GRATING CHANGED AT 5.0, 7.5, 15.0 MICRON
Sampling: TRANSMISSION
Path length: 5 CM
Resolution: 2
Origin: DOW CHEMICAL COMPANY
1/CM	TRANSMITTANCE
448	0.8908
457	0.8863
466	0.8826
475	0.8823
484	0.8791
493	0.8777
502	0.8582
511	0.8381
520	0.8209
529	0.823
538	0.852
547	0.8698
556	0.8713
565	0.8765
574	0.8746
583	0.8698
592	0.8627
601	0.8512
610	0.8393
619	0.831
628	0.8355
637	0.8497
646	0.8729
655	0.8868
664	0.8868
673	0.8812
682	0.8795
691	0.8793
700	0.8796
709	0.8801
718	0.8808
727	0.8823
736	0.8841
745	0.8867
754	0.8907
763	0.893
772	0.893
781	0.8917
790	0.8902
799	0.8903
808	0.8906
817	0.8833
826	0.8559
835	0.8115
844	0.7718
853	0.7913
862	0.8089
871	0.8812
880	0.8822
889	0.8746
898	0.8646
907	0.864
916	0.8754
925	0.882
934	0.8794
943	0.8793
952	0.8823
961	0.8852
970	0.8864
979	0.8863
988	0.886
997	0.8854
1006	0.8895
1015	0.8933
1024	0.8958
1033	0.9055
1042	0.9062
1051	0.8899
1060	0.8795
1069	0.876
1078	0.8714
1087	0.8397
1096	0.8025
1105	0.7171
1114	0.7664
1123	0.8362
1132	0.8404
1141	0.8325
1150	0.8395
1159	0.8471
1168	0.8444
1177	0.8422
1186	0.8549
1195	0.8662
1204	0.8703
1213	0.8692
1222	0.8664
1231	0.8626
1240	0.8621
1249	0.8651
1258	0.8595
1267	0.8504
1276	0.846
1285	0.8257
1294	0.7781
1303	0.6841
1312	0.6991
1321	0.7256
1330	0.7845
1339	0.7135
1348	0.63
1357	0.539
1366	0.5314
1375	0.5875
1384	0.6229
1393	0.5471
1402	0.4191
1411	0.5517
1420	0.7803
1429	0.798
1438	0.7744
1447	0.7415
1456	0.7238
1465	0.6857
1474	0.6743
1483	0.7146
1492	0.7635
1501	0.8152
1510	0.8206
1519	0.8092
1528	0.7475
1537	0.6406
1546	0.4299
1555	0.2328
1564	0.1239
1573	0.0594
1582	0.1237
1591	0.3241
1600	0.5381
1609	0.7296
1618	0.7845
1627	0.8166
1636	0.8228
1645	0.8259
1654	0.8172
1663	0.816
1672	0.8073
1681	0.81
1690	0.8118
1699	0.8157
1708	0.8149
1717	0.8161
1726	0.8176
1735	0.8162
1744	0.82
1753	0.8226
1762	0.8215
1771	0.8191
1780	0.8198
1789	0.8204
1798	0.8199
1807	0.8183
1816	0.8165
1825	0.817
1834	0.8176
1843	0.8174
1852	0.8172
1861	0.817
1870	0.8172
1879	0.8174
1888	0.8174
1897	0.817
1906	0.8167
1915	0.8163
1924	0.816
1933	0.8157
1942	0.8156
1951	0.8154
1960	0.8153
1969	0.8151
1978	0.815
1987	0.8138
1996	0.8126
2005	0.8116
2014	0.8111
2023	0.8105
2032	0.81
2041	0.81
2050	0.81
2059	0.81
2068	0.8101
2077	0.8101
2086	0.8101
2095	0.8101
2104	0.8101
2113	0.8104
2122	0.811
2131	0.8115
2140	0.8122
2149	0.8127
2158	0.8133
2167	0.8138
2176	0.8143
2185	0.8148
2194	0.8154
2203	0.8158
2212	0.8162
2221	0.8165
2230	0.8167
2239	0.817
2248	0.8172
2257	0.8173
2266	0.8175
2275	0.8177
2284	0.8182
2293	0.8188
2302	0.8195
2311	0.8184
2320	0.8215
2329	0.826
2338	0.8194
2347	0.8239
2356	0.8263
2365	0.8245
2374	0.8228
2383	0.8206
2392	0.8176
2401	0.8153
2410	0.8141
2419	0.8128
2428	0.8126
2437	0.8127
2446	0.8129
2455	0.8133
2464	0.8138
2473	0.8143
2482	0.8148
2491	0.8152
2500	0.8157
2509	0.8161
2518	0.8166
2527	0.8171
2536	0.818
2545	0.8188
2554	0.8197
2563	0.8206
2572	0.8216
2581	0.8226
2590	0.8235
2599	0.8238
2608	0.8231
2617	0.8223
2626	0.8211
2635	0.8198
2644	0.8185
2653	0.817
2662	0.8156
2671	0.8145
2680	0.8141
2689	0.8136
2698	0.8127
2707	0.8117
2716	0.8113
2725	0.812
2734	0.8138
2743	0.8156
2752	0.8174
2761	0.8189
2770	0.8201
2779	0.8205
2788	0.8206
2797	0.8198
2806	0.8189
2815	0.8175
2824	0.816
2833	0.8141
2842	0.8117
2851	0.8081
2860	0.8015
2869	0.7902
2878	0.7781
2887	0.7642
2896	0.753
2905	0.743
2914	0.7316
2923	0.7254
2932	0.7196
2941	0.6913
2950	0.6841
2959	0.6972
2968	0.7269
2977	0.7247
2986	0.6015
2995	0.5149
3004	0.5316
3013	0.6109
3022	0.716
3031	0.804
3040	0.8227
3049	0.8298
3058	0.8343
3067	0.8371
3076	0.8387
3085	0.8369
3094	0.8346
3103	0.8334
3112	0.8334
3121	0.8333
3130	0.8328
3139	0.8323
3148	0.8325
3157	0.8328
3166	0.8331
3175	0.8331
3184	0.8332
3193	0.8337
3202	0.8345
3211	0.8355
3220	0.8366
3229	0.8382
3238	0.8397
3247	0.8412
3256	0.8419
3265	0.8424
3274	0.843
3283	0.8434
3292	0.8437
3301	0.8439
3310	0.8441
3319	0.8443
3328	0.8446
3337	0.8447
3346	0.8449
3355	0.845
3364	0.8452
3373	0.8453
3382	0.8455
3391	0.8459
3400	0.8464
3409	0.8468
3418	0.8473
3427	0.8477
3436	0.8479
3445	0.8479
3454	0.848
3463	0.848
3472	0.848
3481	0.848
3490	0.8483
3499	0.8487
3508	0.849
3517	0.8494
3526	0.8497
3535	0.85
3544	0.8502
3553	0.8504
3562	0.8506
3571	0.8508
3580	0.8504
3589	0.8498
3598	0.8495
3607	0.8494
3616	0.8495
3625	0.8496
3634	0.8498
3643	0.85
3652	0.8502
3661	0.8504
3670	0.8509
3679	0.8519
3688	0.8529
3697	0.8541
3706	0.8554
3715	0.8566
3724	0.8575
3733	0.8545
3742	0.8508
3751	0.8536
3760	0.8585
3769	0.8633
