Infrared Spectrum: Propane, 2-nitro-
Formula: C 3 H 7 N O 2
CAS: 79-46-9
State: gas
Origin: Sadtler Research Labs Under US-EPA Contract
1/CM	ABSORBANCE
450	0.0955849
462	0.00740968
474	0.0109293
486	0.0526087
498	0.0305649
510	0.0544611
522	0.0737263
534	0.0779869
546	0.0490891
558	0.034455
570	0.0329731
582	0.0327878
594	0.0457548
606	0.0629823
618	0.0718739
630	0.0677986
642	0.0509416
654	0.0313059
666	0.0216733
678	0.0233405
690	0.0248224
702	0.0279715
714	0.0266748
726	0.0294535
738	0.0316764
750	0.0285273
762	0.0261191
774	0.0242667
786	0.0233405
798	0.0259339
810	0.0313059
822	0.0503858
834	0.120593
846	0.167088
858	0.148379
870	0.0766902
882	0.0370484
894	0.0477924
906	0.0502006
918	0.0409385
930	0.029824
942	0.0314911
954	0.029083
966	0.0259339
978	0.023711
990	0.0216733
1002	0.0214881
1014	0.0214881
1026	0.0214881
1038	0.0238962
1050	0.0244519
1062	0.0270453
1074	0.0374189
1086	0.0765049
1098	0.129669
1110	0.157085
1122	0.145415
1134	0.108552
1146	0.0894719
1158	0.0768754
1170	0.0670576
1182	0.0596479
1194	0.0394565
1206	0.029083
1218	0.0277863
1230	0.0307502
1242	0.0342698
1254	0.0366779
1266	0.0422352
1278	0.0605741
1290	0.116517
1302	0.200432
1314	0.200988
1326	0.173387
1338	0.237665
1350	0.412904
1362	0.530533
1374	0.436986
1386	0.365297
1398	0.451064
1410	0.366779
1422	0.17635
1434	0.122445
1446	0.1569
1458	0.215992
1470	0.219327
1482	0.187835
1494	0.13041
1506	0.0911391
1518	0.148564
1530	0.321024
1542	0.743747
1554	1.43025
1566	1.66107
1578	1.54973
1590	1.12423
1602	0.355294
1614	0.128558
1626	0.0577955
1638	0.0426057
1650	0.0389008
1662	0.029083
1674	0.0316764
1686	0.029824
1698	0.0272306
1710	0.0172275
1722	0.0161161
1734	0.0209323
1746	0.0153751
1758	0.0131522
1770	0.0138932
1782	0.0112998
1794	0.0129669
1806	0.0109293
1818	0.00981783
1830	0.012226
1842	0.0101883
1854	0.0070392
1866	0.00963258
1878	0.00833589
1890	0.00833589
1902	0.0070392
1914	0.00815065
1926	0.00833589
1938	0.00815065
1950	0.00629823
1962	0.00629823
1974	0.00592774
1986	0.00629823
1998	0.00815065
2010	0.0100031
2022	0.012226
2034	0.0125965
2046	0.0131522
2058	0.0120407
2070	0.0109293
2082	0.00796541
2094	0.00537202
2106	0.00426057
2118	0.00463105
2130	0.00389008
2142	0.00426057
2154	0.00426057
2166	0.00370484
2178	0.00370484
2190	0.00518678
2202	0.00592774
2214	0.00611299
2226	0.0057425
2238	0.00592774
2250	0.00629823
2262	0.00592774
2274	0.00778016
2286	0.00740968
2298	0.00592774
2310	0.00333436
2322	0.000370484
2334	0.00166718
2346	0.00944734
2358	0.000370484
2370	0.0200061
2382	0.0200061
2394	0.0151898
2406	0.0166718
2418	0.0170423
2430	0.0148194
2442	0.0116702
2454	0.0116702
2466	0.0129669
2478	0.0125965
2490	0.012226
2502	0.0124112
2514	0.0125965
2526	0.0127817
2538	0.0127817
2550	0.0131522
2562	0.0133374
2574	0.0133374
2586	0.0127817
2598	0.0129669
2610	0.0120407
2622	0.010744
2634	0.010744
2646	0.0112998
2658	0.0111145
2670	0.012226
2682	0.0181537
2694	0.0242667
2706	0.029824
2718	0.0281568
2730	0.0251929
2742	0.0248224
2754	0.0257486
2766	0.022229
2778	0.0201914
2790	0.0192652
2802	0.0198209
2814	0.0211176
2826	0.023711
2838	0.0246372
2850	0.0276011
2862	0.0381599
2874	0.0637232
2886	0.0928062
2898	0.111145
2910	0.11837
2922	0.131892
2934	0.158567
2946	0.19895
2958	0.206915
2970	0.182093
2982	0.257672
2994	0.391602
3006	0.415127
3018	0.22618
3030	0.099475
3042	0.0409385
3054	0.0213028
3066	0.0163013
3078	0.0148194
3090	0.0157456
3102	0.0137079
3114	0.0148194
3126	0.0131522
3138	0.0127817
3150	0.011485
3162	0.0125965
3174	0.012226
3186	0.0135227
3198	0.0120407
3210	0.0111145
3222	0.0109293
3234	0.00796541
3246	0.00592774
3258	0.00426057
3270	0.00333436
3282	0.00240815
3294	0.00203766
3306	0.00240815
3318	0.00148194
3330	0.00370484
3342	0.00666871
3354	0.00555726
3366	0.00611299
3378	0.00407532
3390	0.00463105
3402	0.00611299
3414	0.00259339
3426	0.00407532
3438	0.00296387
3450	0.00370484
3462	0.00314911
3474	0.00259339
3486	0.00333436
3498	0.00389008
3510	0.00407532
3522	0.00277863
3534	0.0022229
3546	0.00444581
3558	0.00296387
3570	0.00333436
3582	0.0022229
3594	0.00463105
3606	0.00407532
3618	0.00203766
3630	0.00481629
3642	0.00500153
3654	0.00463105
3666	0.00203766
3678	0.00389008
3690	0.00129669
3702	0.0035196
3714	0.00426057
3726	0.00463105
3738	0.00314911
3750	0.00481629
3762	0.00389008
3774	0.00370484
3786	0.00148194
3798	0.00166718
3810	0.00314911
3822	0.00481629
3834	0.00240815
3846	0.00259339
3858	0.00444581
3870	0.00444581
3882	0.00463105
3894	0.00444581
3906	0.00555726
3918	0.00815065
3930	0.000370484
3942	0
3954	0.00277863
3966	0.00555726
