Infrared Spectrum: Butane, 2-methyl-
Formula: C 5 H 12
CAS: 78-78-4
State: gas
Origin: Sadtler Research Labs Under US-EPA Contract
1/CM	ABSORBANCE
450	0.00163312
462	0.0111596
474	0.00830167
486	0.00884605
498	0.00748511
510	0.0123845
522	0.0114318
534	0.00802949
546	0.00952651
558	0.00353842
570	0.0104792
582	0.0077573
594	0.00666856
606	0.00898214
618	0.00993479
630	0.0100709
642	0.00748511
654	0.00653246
666	0.00721293
678	0.0108874
690	0.00857386
702	0.00707684
714	0.00748511
726	0.00857386
738	0.0108874
750	0.0142898
762	0.0166033
774	0.019053
786	0.0174199
798	0.0129288
810	0.0097987
822	0.0077573
834	0.0096626
846	0.0077573
858	0.0077573
870	0.00802949
882	0.00843777
894	0.0106153
906	0.0126566
918	0.0118401
930	0.0119762
942	0.0111596
954	0.0121123
966	0.0187808
978	0.0232719
990	0.0240885
1002	0.0253133
1014	0.0270825
1026	0.0258577
1038	0.019053
1050	0.0121123
1062	0.00843777
1074	0.00694074
1086	0.00544372
1098	0.00734902
1110	0.00857386
1122	0.0129288
1134	0.0209583
1146	0.0247689
1158	0.0268103
1170	0.0220471
1182	0.0174199
1194	0.0115679
1206	0.00843777
1218	0.00830167
1230	0.00870995
1242	0.00884605
1254	0.0118401
1266	0.0167394
1278	0.0189169
1290	0.0210944
1302	0.02055
1314	0.0198696
1326	0.0181004
1338	0.0235441
1350	0.038106
1362	0.0691352
1374	0.103158
1386	0.13133
1398	0.0941764
1410	0.0338872
1422	0.0229997
1434	0.038106
1446	0.0826085
1458	0.143578
1470	0.178962
1482	0.119898
1494	0.0675021
1506	0.0262659
1518	0.010207
1530	0.00612418
1542	0.00557981
1554	0.00843777
1566	0.00721293
1578	0.00816558
1590	0.00707684
1602	0.00734902
1614	0.00653246
1626	0.00544372
1638	0.00476326
1650	0.00612418
1662	0.00680465
1674	0.00517153
1686	0.00435498
1698	0.00476326
1710	0.00598809
1722	0.00503544
1734	0.00530763
1746	0.00503544
1758	0.00503544
1770	0.00530763
1782	0.00326623
1794	0.00353842
1806	0.0039467
1818	0.0038106
1830	0.00408279
1842	0.00326623
1854	0.00285795
1866	0.00313014
1878	0.00313014
1890	0.00285795
1902	0.00231358
1914	0.00244967
1926	0.00326623
1938	0.00299405
1950	0.00272186
1962	0.00244967
1974	0.00258577
1986	0.00285795
1998	0.00285795
2010	0.00176921
2022	0.0020414
2034	0.00299405
2046	0.00285795
2058	0.0020414
2070	0.00231358
2082	0.00272186
2094	0.00299405
2106	0.00258577
2118	0.00244967
2130	0.00285795
2142	0.00313014
2154	0.00258577
2166	0.00326623
2178	0.00272186
2190	0.00244967
2202	0.00244967
2214	0.0019053
2226	0.00176921
2238	0.00136093
2250	0.00231358
2262	0.00299405
2274	0.00258577
2286	0.0019053
2298	0.00136093
2310	0.000408279
2322	0.00122484
2334	0
2346	0
2358	0
2370	0.00421888
2382	0.0019053
2394	0.00285795
2406	0.00340232
2418	0.0038106
2430	0.00353842
2442	0.00272186
2454	0.00217749
2466	0.00258577
2478	0.00299405
2490	0.00299405
2502	0.00217749
2514	0.0020414
2526	0.0019053
2538	0.0020414
2550	0.00244967
2562	0.00353842
2574	0.00571591
2586	0.00870995
2598	0.010207
2610	0.011704
2622	0.0118401
2634	0.0121123
2646	0.0114318
2658	0.00993479
2670	0.00952651
2682	0.010207
2694	0.0110235
2706	0.0129288
2718	0.0163312
2730	0.021911
2742	0.0244967
2754	0.0231358
2766	0.0210944
2778	0.0209583
2790	0.024905
2802	0.0310292
2814	0.0382421
2826	0.0495379
2838	0.0724015
2850	0.130241
2862	0.2515
2874	0.437267
2886	0.533212
2898	0.554171
2910	0.575129
2922	0.631608
2934	0.712175
2946	0.847995
2958	1.18768
2970	1.27805
2982	0.906924
2994	0.322677
3006	0.0866912
3018	0.0412362
3030	0.0311653
3042	0.0276269
3054	0.027763
3066	0.0289878
3078	0.0289878
3090	0.0224553
3102	0.0183726
3114	0.0163312
3126	0.0161951
3138	0.0167394
3150	0.0176921
3162	0.0183726
3174	0.0194613
3186	0.0189169
3198	0.0157868
3210	0.0108874
3222	0.00898214
3234	0.00762121
3246	0.00571591
3258	0.00435498
3270	0.00244967
3282	0.00231358
3294	0.00435498
3306	0.00612418
3318	0.00557981
3330	0.00721293
3342	0.00721293
3354	0.00721293
3366	0.00694074
3378	0.00421888
3390	0.00353842
3402	0.00421888
3414	0.00530763
3426	0.00462716
3438	0.00367451
3450	0.00353842
3462	0.00367451
3474	0.00367451
3486	0.0020414
3498	0.00136093
3510	0.00421888
3522	0.00313014
3534	0.0019053
3546	0.00217749
3558	0.0038106
3570	0.00421888
3582	0.00313014
3594	0.00176921
3606	0.00313014
3618	0.00258577
3630	0.00557981
3642	0.00313014
3654	0
3666	0.00544372
3678	0.00680465
3690	0.00530763
3702	0.00503544
3714	0.000952651
3726	0.00272186
3738	0.00122484
3750	0.00598809
3762	0.00626028
3774	0.00176921
3786	0.00503544
3798	0.00666856
3810	0.00830167
3822	0.00476326
3834	0.00231358
3846	0.00489935
3858	0.00462716
3870	0.00694074
3882	0.00884605
3894	0.00707684
3906	0.00272186
3918	0.0100709
3930	0.00653246
3942	0.00340232
3954	0.00721293
3966	0.00653246
