Infrared Spectrum: 2-Propanol, 1-bromo-
Formula: C3 H7 Br O
CAS: 19686-73-8
State: SOLUTION (10% CCl4 FOR 2.6-7.5, 10% CS2 FOR 7.5-25 MICRON)
Class: COBLENTZ III
Instrument: BECKMAN IR-9 (GRATING)
Instrument parameters: ORDER CHANGES: 670, 1200, 2000 CM^-^1
Sampling: TRANSMISSION
Path length: 0.011 CM, 0.011 CM
Resolution: 2
Origin: DOW CHEMICAL COMPANY
1/CM	TRANSMITTANCE
3814	0.9321
3805	0.9324
3796	0.9318
3787	0.9313
3778	0.9304
3769	0.9295
3760	0.9291
3751	0.9267
3742	0.9243
3733	0.9211
3724	0.9186
3715	0.9127
3706	0.9067
3697	0.896
3688	0.8869
3679	0.8885
3670	0.8883
3661	0.8771
3652	0.8551
3643	0.8219
3634	0.723
3625	0.7012
3616	0.6986
3607	0.6617
3598	0.5255
3589	0.5582
3580	0.6062
3571	0.653
3562	0.6712
3553	0.6693
3544	0.6534
3535	0.6265
3526	0.594
3517	0.5742
3508	0.56
3499	0.5487
3490	0.5391
3481	0.5321
3472	0.5278
3463	0.5271
3454	0.5279
3445	0.5301
3436	0.5329
3427	0.5356
3418	0.541
3409	0.5467
3400	0.5534
3391	0.5607
3382	0.5681
3373	0.5787
3364	0.5898
3355	0.6016
3346	0.6146
3337	0.6283
3328	0.6394
3319	0.6515
3310	0.6653
3301	0.6812
3292	0.6978
3283	0.7153
3274	0.7318
3265	0.7446
3256	0.7557
3247	0.7685
3238	0.7798
3229	0.791
3220	0.8016
3211	0.8118
3202	0.8209
3193	0.8323
3184	0.8412
3175	0.8512
3166	0.8596
3157	0.8685
3148	0.8742
3139	0.8819
3130	0.8882
3121	0.8937
3112	0.8983
3103	0.903
3094	0.9108
3085	0.9073
3076	0.9092
3067	0.9062
3058	0.9059
3049	0.9043
3040	0.9101
3031	0.8939
3022	0.8486
3013	0.8169
3004	0.8058
2995	0.719
2986	0.4053
2977	0.4017
2968	0.5041
2959	0.5901
2950	0.7157
2941	0.7124
2932	0.6152
2923	0.6853
2914	0.7139
2905	0.6358
2896	0.6289
2887	0.6676
2878	0.7063
2869	0.7595
2860	0.8014
2851	0.8271
2842	0.8491
2833	0.8614
2824	0.8754
2815	0.8867
2806	0.8982
2797	0.9042
2788	0.9075
2779	0.9132
2770	0.916
2761	0.9172
2752	0.9185
2743	0.9196
2734	0.9209
2725	0.922
2716	0.9233
2707	0.9227
2698	0.9218
2689	0.9211
2680	0.9217
2671	0.9241
2662	0.9264
2653	0.9288
2644	0.9249
2635	0.925
2626	0.9308
2617	0.9355
2608	0.9373
2599	0.9387
2590	0.9401
2581	0.9413
2572	0.9425
2563	0.9431
2554	0.9438
2545	0.9444
2536	0.945
2527	0.9456
2518	0.9461
2509	0.9464
2500	0.9459
2491	0.9441
2482	0.9448
2473	0.9476
2464	0.949
2455	0.949
2446	0.9505
2437	0.9496
2428	0.9489
2419	0.9482
2410	0.9477
2401	0.9486
2392	0.9479
2383	0.95
2374	0.9544
2365	0.9526
2356	0.9564
2347	0.9571
2338	0.9548
2329	0.9545
2320	0.9455
2311	0.9438
2302	0.9424
2293	0.9453
2284	0.9476
2275	0.9468
2266	0.9463
2257	0.9438
2248	0.943
2239	0.946
2230	0.9521
2221	0.9565
2212	0.9595
2203	0.9617
2194	0.9624
2185	0.9617
2176	0.9639
2167	0.9629
2158	0.9632
2149	0.9635
2140	0.9638
2131	0.9641
2122	0.9627
2113	0.9636
2104	0.9628
2095	0.9613
2086	0.9601
2077	0.96
2068	0.9599
2059	0.9593
2050	0.9596
2041	0.9569
2032	0.9539
2023	0.9522
2014	0.9499
2005	0.9472
1996	0.942
1987	0.9426
1978	0.9415
1969	0.9427
1960	0.9451
1951	0.9458
1942	0.9456
1933	0.9456
1924	0.9458
1915	0.9445
1906	0.9438
1897	0.9422
1888	0.9388
1879	0.9384
1870	0.9377
1861	0.9365
1852	0.937
1843	0.94
1834	0.9414
1825	0.9438
1816	0.9467
1807	0.9457
1798	0.9439
1789	0.9424
1780	0.9379
1771	0.9259
1762	0.9077
1753	0.9048
1744	0.8997
1735	0.8788
1726	0.8866
1717	0.9
1708	0.9096
1699	0.9115
1690	0.9109
1681	0.9076
1672	0.9036
1663	0.8951
1654	0.8798
1645	0.8683
1636	0.8662
1627	0.8629
1618	0.859
1609	0.8564
1600	0.8494
1591	0.8348
1582	0.8191
1573	0.8178
1564	0.8184
1555	0.7632
1546	0.7903
1537	0.8318
1528	0.8279
1519	0.8378
1510	0.8559
1501	0.8612
1492	0.8735
1483	0.8639
1474	0.8339
1465	0.7735
1456	0.6013
1447	0.6199
1438	0.7061
1429	0.6478
1420	0.3742
1411	0.6859
1402	0.6816
1393	0.643
1384	0.533
1375	0.4634
1366	0.599
1357	0.6315
1348	0.5705
1339	0.6985
1330	0.6886
1321	0.6713
1312	0.7488
1303	0.7249
1294	0.6933
1285	0.6668
1276	0.6396
1267	0.5157
1258	0.3884
1249	0.4416
1240	0.5864
1231	0.5698
1222	0.3761
1213	0.5157
1204	0.7525
1195	0.7124
1186	0.6137
1177	0.6439
1168	0.708
1159	0.7415
1150	0.7264
1141	0.5973
1132	0.4674
1123	0.5208
1114	0.512
1105	0.4624
1096	0.6341
1087	0.6026
1078	0.49
1069	0.5278
1060	0.5851
1051	0.5148
1042	0.5472
1033	0.3714
1024	0.3173
1015	0.524
1006	0.7174
997	0.8205
988	0.8633
979	0.8849
970	0.889
961	0.8765
952	0.805
943	0.6964
934	0.4879
925	0.8096
916	0.885
907	0.9006
898	0.9004
889	0.8841
880	0.8419
871	0.7769
862	0.8367
853	0.8388
844	0.8807
835	0.8477
826	0.6948
817	0.7085
808	0.8647
799	0.902
790	0.9088
781	0.9094
772	0.9065
763	0.9025
754	0.8966
745	0.8898
736	0.8821
727	0.8744
718	0.8654
709	0.8525
700	0.8332
691	0.801
682	0.714
673	0.6029
664	0.5311
655	0.5119
646	0.7311
637	0.7755
628	0.7942
619	0.8015
610	0.8022
601	0.8008
592	0.8017
583	0.8019
574	0.8016
565	0.8011
556	0.7979
547	0.7944
538	0.7897
529	0.7863
520	0.7763
511	0.7274
502	0.69
493	0.7452
484	0.7368
475	0.6989
466	0.6063
457	0.6406
448	0.5887
439	0.5153
430	0.4709
421	0.3594
412	0.2551
403	0.3024
