Infrared Spectrum: 3-Methoxy-1-propanol
Formula: C 4 H 10 O 2
CAS: 1589-49-7
State: gas
Origin: EPA-IR VAPOR PHASE LIBRARY
1/CM	ABSORBANCE
549.8	0.0004924
559.445	0.0003144
569.09	0.0003163
578.734	5.178e-05
588.379	0.0002223
598.024	0.0001422
607.669	0.0002216
617.313	2.14e-05
626.958	0.0002013
636.603	0.0002423
646.248	0.00010442
655.893	0.0002112
665.537	0.0002775
675.182	6.998e-05
684.827	0.0002636
694.472	0.000222
704.116	0.0003401
713.761	0.000243
723.406	0.0003124
733.051	0.0003941
742.695	0.0005176
752.34	0.0007755
761.985	0.000846
771.63	0.0009712
781.275	0.0011116
790.919	0.0012016
800.564	0.0009796
810.209	0.0009481
819.854	0.0008784
829.498	0.0008551
839.143	0.0010816
848.788	0.0010716
858.433	0.0014116
868.078	0.0016416
877.722	0.0021416
887.367	0.0026816
897.012	0.0031716
906.657	0.0037216
916.301	0.0040716
925.946	0.0039916
935.591	0.0038716
945.236	0.0039016
954.88	0.0044316
964.525	0.0048416
974.17	0.0049816
983.815	0.0054116
993.46	0.0059416
1003.1	0.0079316
1012.75	0.0109716
1022.39	0.0139216
1032.04	0.0159716
1041.68	0.0168116
1051.33	0.0172316
1060.97	0.0171716
1070.62	0.0183316
1080.26	0.0198816
1089.91	0.0226116
1099.55	0.0266116
1109.2	0.0320216
1118.84	0.0379216
1128.49	0.0364916
1138.13	0.0283816
1147.78	0.0170816
1157.42	0.0122816
1167.07	0.0109816
1176.71	0.0110216
1186.36	0.0110516
1196	0.0107516
1205.64	0.0092316
1215.29	0.0076516
1224.93	0.0059116
1234.58	0.0046516
1244.22	0.0040516
1253.87	0.0037116
1263.51	0.0035816
1273.16	0.0034016
1282.8	0.0033816
1292.45	0.0032416
1302.09	0.0030316
1311.74	0.0027616
1321.38	0.0027216
1331.03	0.0028416
1340.67	0.0032616
1350.32	0.0038616
1359.96	0.0047216
1369.61	0.0061016
1379.25	0.0073616
1388.9	0.0077616
1398.54	0.0070016
1408.18	0.0057216
1417.83	0.0051616
1427.47	0.0047216
1437.12	0.0043316
1446.76	0.0040816
1456.41	0.0046216
1466.05	0.0048616
1475.7	0.0046716
1485.34	0.0036316
1494.99	0.0024116
1504.63	0.0015016
1514.28	0.0010416
1523.92	0.0008678
1533.57	0.0007423
1543.21	0.0005617
1552.86	0.0005499
1562.5	0.0004658
1572.15	0.0005106
1581.79	0.0003682
1591.44	0.0002953
1601.08	0.0002429
1610.73	0.0003045
1620.37	0.0002358
1630.01	0.0002257
1639.66	0.0002628
1649.3	0.0001872
1658.95	8.163e-05
1668.59	0.0001664
1678.24	0.0001667
1687.88	0.00010044
1697.53	0.000158
1707.17	0.00010928
1716.82	0.00012452
1726.46	0.00010785
1736.11	6.179e-05
1745.75	0.00011221
1755.4	5.569e-05
1765.04	6.138e-05
1774.69	1.64e-05
1784.33	9.634e-05
1793.98	7.674e-05
1803.62	0.00011432
1813.27	0.00010107
1822.91	5.974e-05
1832.55	0.000144
1842.2	0.0001816
1851.84	0.0001368
1861.49	0.0001702
1871.13	0.0001902
1880.78	0.0002199
1890.42	0.0002633
1900.07	0.0002305
1909.71	0.0003451
1919.36	0.0002476
1929	0.0003017
1938.65	0.0002587
1948.29	0.0003195
1957.94	0.00032
1967.58	0.000347
1977.23	0.0004439
1986.87	0.0004743
1996.52	0.0005366
2006.16	0.0005624
2015.81	0.000601
2025.45	0.0006406
2035.1	0.0006628
2044.74	0.0006831
2054.38	0.0006366
2064.03	0.0006934
2073.67	0.0006155
2083.32	0.000581
2092.96	0.000526
2102.61	0.0005323
2112.25	0.0004266
2121.9	0.0004235
2131.54	0.0004277
2141.19	0.0004097
2150.83	0.0003594
2160.48	0.0003839
2170.12	0.0002939
2179.77	0.0003554
2189.41	0.0002601
2199.06	0.0002908
2208.7	0.0002631
2218.35	0.0003293
2227.99	0.0003123
2237.64	0.0002691
2247.28	0.0002845
2256.92	0.0002627
2266.57	0.0002362
2276.21	0.0002347
2285.86	0.0002436
2295.5	0.0001812
2305.15	0.0002377
2314.79	0.0003375
2324.44	0.0003439
2334.08	0.0002175
2343.73	0.000249
2353.37	0.0003015
2363.02	0.000286
2372.66	0.0003181
2382.31	0.0003268
2391.95	0.0002689
2401.6	0.0002876
2411.24	0.0003378
2420.89	0.0003199
2430.53	0.0002976
2440.18	0.0003307
2449.82	0.0002926
2459.47	0.000293
2469.11	0.0003462
2478.75	0.0002579
2488.4	0.0003305
2498.04	0.0002155
2507.69	0.0002887
2517.33	0.0002838
2526.98	0.0003031
2536.62	0.0003637
2546.27	0.0003431
2555.91	0.0003669
2565.56	0.0004432
2575.2	0.0004489
2584.85	0.0005557
2594.49	0.0005082
2604.14	0.0005626
2613.78	0.000629
2623.43	0.0006209
2633.07	0.0007211
2642.72	0.0007717
2652.36	0.0008251
2662.01	0.0007729
2671.65	0.0009521
2681.29	0.0010247
2690.94	0.0010716
2700.58	0.0013616
2710.23	0.0016516
2719.87	0.0020816
2729.52	0.0023016
2739.16	0.0027516
2748.81	0.0028016
2758.45	0.0029016
2768.1	0.0031016
2777.74	0.0034616
2787.39	0.0042516
2797.03	0.0058416
2806.68	0.0090216
2816.32	0.0124316
2825.97	0.0155216
2835.61	0.0170016
2845.26	0.0183416
2854.9	0.0201016
2864.55	0.0235816
2874.19	0.0265716
2883.84	0.0280716
2893.48	0.0277716
2903.12	0.0266116
2912.77	0.0264816
2922.41	0.0282816
2932.06	0.0309416
2941.7	0.0314916
2951.35	0.0288116
2960.99	0.0239016
2970.64	0.0190716
2980.28	0.0158716
2989.93	0.0128416
2999.57	0.0096816
3009.22	0.0063616
3018.86	0.0039916
3028.51	0.0028216
3038.15	0.0021716
3047.8	0.0018516
3057.44	0.0015916
3067.09	0.0013016
3076.73	0.0012816
3086.38	0.0010716
3096.02	0.0009216
3105.67	0.0006727
3115.31	0.0007992
3124.95	0.0006602
3134.6	0.000644
3144.24	0.0004573
3153.89	0.0004926
3163.53	0.000583
3173.18	0.0005049
3182.82	0.0004425
3192.47	0.0003999
3202.11	0.0003075
3211.76	0.000338
3221.4	0.0002428
3231.05	0.0001367
3240.69	0.0002851
3250.34	0.00010156
3259.98	0.0003938
3269.63	0.0002191
3279.27	0.0002088
3288.92	0.0002203
3298.56	0.0003004
3308.21	0.0002131
3317.85	0.0001457
3327.49	0.0004092
3337.14	0.0003545
3346.78	0.0003181
3356.43	0.000215
3366.07	0.0002397
3375.72	0.0003431
3385.36	0.0003661
3395.01	0.000262
3404.65	0.0003387
3414.3	0.0003899
3423.94	0.0003598
3433.59	0.0004032
3443.23	0.000523
3452.88	0.0006019
3462.52	0.0005159
3472.17	0.0004681
3481.81	0.0004564
3491.46	0.00053
3501.1	0.0004078
3510.75	0.0005071
3520.39	0.0005134
3530.04	0.0004402
3539.68	0.0005287
3549.32	0.000521
3558.97	0.0005649
3568.61	0.0010111
3578.26	0.0018716
3587.9	0.0039216
3597.55	0.0046216
3607.19	0.0046016
3616.84	0.0034216
3626.48	0.0023816
3636.13	0.0019416
3645.77	0.0021716
3655.42	0.0029716
3665.06	0.0039316
3674.71	0.0036616
3684.35	0.0029716
3694	0.0015016
3703.64	0.0010213
3713.29	0.0005819
3722.93	0.0005679
3732.58	0.0005955
3742.22	0.0005863
3751.86	0.0006059
3761.51	0.000591
3771.15	0.0004214
3780.8	0.0005286
3790.44	0.0005016
3800.09	0.0004896
3809.73	0.0003281
3819.38	0.000468
3829.02	0.0005136
3838.67	0.0004443
3848.31	0.0004495
3857.96	0.0004792
3867.6	0.0003484
3877.25	0.0004455
3886.89	0.0003317
3896.54	0.0001544
3906.18	0.000223
3915.83	0.0004683
3925.47	0.0004577
3935.12	0.0002809
3944.76	0.0003877
3954.41	0.0003596
3964.05	0.0004769
3973.69	0.0005963
3983.34	0.0003046
3992.98	0.0005057
