Infrared Spectrum: .alpha.-Bromoacrylic acid
Formula: C 3 H 3 Br O 2
CAS: 10443-65-9
State: gas
Origin: EPA-IR VAPOR PHASE LIBRARY
1/CM	ABSORBANCE
501.5	0.00152
513.074	0.0017
524.648	0.00245
536.222	0.00297
547.796	0.00291
559.37	0.00302
570.944	0.00306
582.518	0.00272
594.092	0.00162
605.666	0.00134
617.24	0.0014
628.814	0.00204
640.388	0.00386
651.962	0.00458
663.536	0.00371
675.11	0.00272
686.684	0.00113
698.258	0.0007052
709.832	0.0005353
721.406	0.0003901
732.98	0.0004278
744.554	0.0004243
756.128	0.0004624
767.702	0.0005495
779.276	0.00102
790.85	0.00162
802.423	0.00125
813.997	0.000926
825.571	0.0006528
837.145	0.0008008
848.719	0.0007982
860.293	0.0006378
871.867	0.000463
883.441	0.0003372
895.015	0.0004496
906.589	0.0006425
918.163	0.0014
929.737	0.0022
941.311	0.00216
952.885	0.00122
964.459	0.000492
976.033	0.0002858
987.607	0.0002398
999.181	0.000336
1010.76	0.0004011
1022.33	0.0005337
1033.9	0.0006982
1045.48	0.00112
1057.05	0.00317
1068.63	0.00769
1080.2	0.00886
1091.77	0.00495
1103.35	0.0036
1114.92	0.00459
1126.49	0.00508
1138.07	0.00516
1149.64	0.00624
1161.22	0.00643
1172.79	0.00571
1184.36	0.00327
1195.94	0.00225
1207.51	0.0019
1219.09	0.00183
1230.66	0.00171
1242.23	0.00181
1253.81	0.00182
1265.38	0.00205
1276.96	0.00195
1288.53	0.00209
1300.1	0.00234
1311.68	0.00277
1323.25	0.00311
1334.83	0.00284
1346.4	0.00216
1357.97	0.0016
1369.55	0.00184
1381.12	0.00249
1392.7	0.00319
1404.27	0.00285
1415.84	0.0018
1427.42	0.00102
1438.99	0.000561
1450.57	0.0003907
1462.14	0.0002338
1473.71	0.0001603
1485.29	0.0001343
1496.86	0.0001668
1508.44	0.0001535
1520.01	0.0001529
1531.58	0.0001296
1543.16	0.0001939
1554.73	0.0002673
1566.31	0.0004609
1577.88	0.0008559
1589.45	0.00168
1601.03	0.00281
1612.6	0.00253
1624.18	0.00139
1635.75	0.0005664
1647.32	0.0003934
1658.9	0.0003768
1670.47	0.0004314
1682.05	0.0005608
1693.62	0.0007007
1705.19	0.0009712
1716.77	0.00138
1728.34	0.0018
1739.92	0.00333
1751.49	0.0086
1763.06	0.01251
1774.64	0.01117
1786.21	0.00893
1797.79	0.00452
1809.36	0.00197
1820.93	0.00113
1832.51	0.0007851
1844.08	0.0005656
1855.66	0.0004748
1867.23	0.0004543
1878.8	0.0004272
1890.38	0.0003064
1901.95	0.0002433
1913.53	0.0001886
1925.1	0.0001883
1936.67	0.0001858
1948.25	0.0002245
1959.82	0.0002321
1971.4	0.0002066
1982.97	0.0001976
1994.54	0.000201
2006.12	0.0001848
2017.69	0.0001751
2029.27	0.000187
2040.84	0.0001413
2052.41	0.0001453
2063.99	0.0001338
2075.56	0.0001388
2087.14	0.0001236
2098.71	0.0001316
2110.28	0.0001384
2121.86	0.000127
2133.43	0.0001688
2145.01	0.0001675
2156.58	0.0001652
2168.15	0.0001313
2179.73	0.0001394
2191.3	0.0001152
2202.88	0.0001134
2214.45	0.0001263
2226.02	0.0001187
2237.6	0.0001247
2249.17	0.0001137
2260.74	0.0001377
2272.32	0.0001458
2283.89	0.0001421
2295.47	0.0001886
2307.04	0.0001886
2318.61	0.0001903
2330.19	0.0002254
2341.76	0.0002089
2353.34	0.0002256
2364.91	0.0002679
2376.48	0.0002128
2388.06	0.0001334
2399.63	9.452e-05
2411.21	0.0001006
2422.78	9.046e-05
2434.35	0.0001151
2445.93	0.0001058
2457.5	0.0001346
2469.08	0.0001191
2480.65	0.0001577
2492.22	0.0001199
2503.8	0.0001066
2515.37	0.0001205
2526.95	9.881e-05
2538.52	8.386e-05
2550.09	8.926e-05
2561.67	6.263e-05
2573.24	7.624e-05
2584.82	9.298e-05
2596.39	8.707e-05
2607.96	6.251e-05
2619.54	7.719e-05
2631.11	8.115e-05
2642.69	5.951e-05
2654.26	6.408e-05
2665.83	8.083e-05
2677.41	8.191e-05
2688.98	8.341e-05
2700.56	7.773e-05
2712.13	9.397e-05
2723.7	8.692e-05
2735.28	6.55e-05
2746.85	6.152e-05
2758.43	6.951e-05
2770	6.188e-05
2781.57	8.763e-05
2793.15	5.998e-05
2804.72	6.842e-05
2816.3	3.494e-05
2827.87	7.068e-05
2839.44	7.474e-05
2851.02	6.584e-05
2862.59	8.079e-05
2874.17	9.864e-05
2885.74	9.508e-05
2897.31	9.072e-05
2908.89	7.904e-05
2920.46	0.0001035
2932.04	0.0001231
2943.61	0.0001019
2955.18	6.901e-05
2966.76	0.0001283
2978.33	9.711e-05
2989.91	7.145e-05
3001.48	0.0001047
3013.05	0.0001074
3024.63	9.019e-05
3036.2	0.000121
3047.78	0.0001453
3059.35	9.196e-05
3070.92	0.0001152
3082.5	5.54e-05
3094.07	6.883e-05
3105.65	0.0001064
3117.22	0.0001127
3128.79	7.074e-05
3140.37	7.992e-05
3151.94	8.089e-05
3163.52	7.385e-05
3175.09	8.149e-05
3186.66	9.696e-05
3198.24	0.0001368
3209.81	9.152e-05
3221.39	0.0001288
3232.96	8.432e-05
3244.53	0.0001551
3256.11	0.000118
3267.68	0.0001189
3279.26	7.784e-05
3290.83	8.573e-05
3302.4	0.0001515
3313.98	0.0001023
3325.55	0.0001277
3337.13	0.000162
3348.7	8.713e-05
3360.27	0.0001057
3371.85	8.552e-05
3383.42	0.0001055
3395	0.0001601
3406.57	0.0001066
3418.14	5.954e-05
3429.72	0.0001031
3441.29	0.0001632
3452.86	0.0001857
3464.44	0.0001466
3476.01	0.0001829
3487.59	0.0002253
3499.16	0.0003064
3510.73	0.0003773
3522.31	0.0004521
3533.88	0.0008183
3545.46	0.00105
3557.03	0.0015
3568.6	0.00396
3580.18	0.00581
3591.75	0.00461
3603.33	0.00129
3614.9	0.0004088
3626.47	0.0001558
3638.05	0.0001457
3649.62	0.0001503
3661.2	0.0001587
3672.77	0.0001764
3684.34	7.122e-05
3695.92	0.0001222
3707.49	0.0001578
3719.07	8.455e-05
3730.64	0.0001266
3742.21	0.0001951
3753.79	0.0001018
3765.36	8.221e-05
3776.94	0.0001006
3788.51	0.0001882
3800.08	8.769e-05
3811.66	8.906e-05
3823.23	9.846e-05
3834.81	8.196e-05
3846.38	0.0001092
3857.95	0.0001453
3869.53	7.213e-05
3881.1	0.0001504
3892.68	0.0001392
3904.25	8.719e-05
3915.82	0.0001285
3927.4	0.0001301
3938.97	7.745e-05
3950.55	0.0001024
3962.12	4.98e-05
3973.69	0.0001122
3985.27	8.645e-05
3996.84	7.484e-05
