Infrared Spectrum: 2-Butanethiol
Formula: C 4 H 10 S
CAS: 513-53-1
State: gas
Instrument: HP-GC/MS/IRD
Origin: NIST Mass Spectrometry Data Center
1/CM	ABSORBANCE
550	4.41e-05
562	8.82e-05
574	0.0002268
586	0.0002268
598	0.0005796
610	0.0008253
622	0.0009198
634	0.0008568
646	0.0005481
658	0.0005922
670	0.0005796
682	0.0006174
694	0.0004347
706	0.0002646
718	9.45e-05
730	8.82e-05
742	9.45e-05
754	0.0002142
766	0.0005985
778	0.00126
790	0.0018018
802	0.0018207
814	0.0018648
826	0.0020097
838	0.0020601
850	0.0017514
862	0.0012789
874	0.0012285
886	0.0008694
898	0.0006111
910	0.0005103
922	0.0005103
934	0.0007056
946	0.0012726
958	0.0017451
970	0.002016
982	0.0021798
994	0.0025452
1006	0.0028161
1018	0.0023688
1030	0.0015687
1042	0.0012285
1054	0.0015687
1066	0.0022617
1078	0.0024381
1090	0.0021546
1102	0.0018333
1114	0.0018711
1126	0.0019719
1138	0.0025578
1150	0.0027783
1162	0.0024885
1174	0.0013041
1186	0.0008946
1198	0.0015435
1210	0.0036603
1222	0.0063
1234	0.0073458
1246	0.0058779
1258	0.00378
1270	0.0035973
1282	0.0046683
1294	0.0055629
1306	0.0044415
1318	0.0029736
1330	0.0018963
1342	0.0017199
1354	0.0024444
1366	0.0047439
1378	0.0072198
1390	0.0078435
1402	0.0046746
1414	0.0023877
1426	0.0034713
1438	0.0068922
1450	0.0109935
1462	0.0112014
1474	0.0085239
1486	0.0047376
1498	0.0021924
1510	0.0010836
1522	0.0007434
1534	0.0005985
1546	0.0005733
1558	0.0006048
1570	0.0006363
1582	0.000567
1594	0.0005103
1606	0.0004599
1618	0.0004221
1630	0.0004221
1642	0.0004095
1654	0.000441
1666	0.0004032
1678	0.0004347
1690	0.0003402
1702	0.0003213
1714	0.0002709
1726	0.000189
1738	0.0001449
1750	0.0001512
1762	0.0001323
1774	8.82e-05
1786	6.93e-05
1798	0.0001008
1810	0.0001008
1822	0.0001071
1834	0.0001071
1846	9.45e-05
1858	7.56e-05
1870	7.56e-05
1882	9.45e-05
1894	0.0001008
1906	7.56e-05
1918	9.45e-05
1930	5.67e-05
1942	7.56e-05
1954	6.3e-05
1966	7.56e-05
1978	5.67e-05
1990	4.41e-05
2002	5.67e-05
2014	5.04e-05
2026	2.52e-05
2038	4.41e-05
2050	3.15e-05
2062	3.78e-05
2074	5.04e-05
2086	5.04e-05
2098	4.41e-05
2110	1.89e-05
2122	0
2134	3.15e-05
2146	3.15e-05
2158	6.3e-05
2170	5.67e-05
2182	2.52e-05
2194	1.26e-05
2206	2.52e-05
2218	3.15e-05
2230	9.45e-05
2242	2.52e-05
2254	4.41e-05
2266	5.67e-05
2278	8.82e-05
2290	0.0001197
2302	8.82e-05
2314	0.0001197
2326	0.0001197
2338	0.0001449
2350	0.0002079
2362	0.0002016
2374	0.0001764
2386	0.0002142
2398	0.0002016
2410	0.0001953
2422	0.0001197
2434	0.0001512
2446	0.0002016
2458	0.0001512
2470	0.0001827
2482	0.0001701
2494	0.0002016
2506	0.0001449
2518	0.0002331
2530	0.0002583
2542	0.0003213
2554	0.0005166
2566	0.0008883
2578	0.0017199
2590	0.0019215
2602	0.0016695
2614	0.0010647
2626	0.0006174
2638	0.0004977
2650	0.0004788
2662	0.0005418
2674	0.0005607
2686	0.0006237
2698	0.0006363
2710	0.0007182
2722	0.0009576
2734	0.0012663
2746	0.001386
2758	0.0013671
2770	0.0012411
2782	0.0013167
2794	0.0015435
2806	0.0018963
2818	0.0024633
2830	0.0034209
2842	0.0057078
2854	0.0095949
2866	0.0153468
2878	0.0199584
2890	0.0223335
2902	0.0242739
2914	0.0308385
2926	0.0412713
2938	0.0447111
2950	0.0454671
2962	0.0545328
2974	0.060858
2986	0.0457065
2998	0.0210357
3010	0.0070812
3022	0.0035721
3034	0.0026019
3046	0.0022365
3058	0.0021105
3070	0.0020664
3082	0.0019845
3094	0.0016695
3106	0.0013671
3118	0.0011844
3130	0.0010647
3142	0.0010899
3154	0.0010017
3166	0.0010836
3178	0.0010521
3190	0.0010647
3202	0.0008883
3214	0.0007812
3226	0.0005922
3238	0.0003402
3250	0.0003402
3262	0.000252
3274	0.0003276
3286	0.0003402
3298	0.0003906
3310	0.0003654
3322	0.0001575
3334	0.0002268
3346	0.0001827
3358	0.0002079
3370	0.0002079
3382	0.0001638
3394	0.0001764
3406	7.56e-05
3418	6.93e-05
3430	0.0001827
3442	6.3e-05
3454	0.0001575
3466	0.0001071
3478	5.67e-05
3490	0.0001008
3502	0.0001323
3514	8.19e-05
3526	7.56e-05
3538	3.78e-05
3550	1.26e-05
3562	5.67e-05
3574	6.3e-05
3586	7.56e-05
3598	7.56e-05
3610	9.45e-05
3622	8.19e-05
3634	0.0001134
3646	0.0001008
3658	5.04e-05
3670	0.0001701
3682	0.0001449
3694	0.0001701
3706	0.0001323
3718	0.0001134
3730	0.0001386
3742	0.0001575
3754	8.82e-05
3766	0.0001008
3778	0.0001197
3790	8.19e-05
3802	0.0001512
3814	9.45e-05
3826	0.0001512
3838	0.0002205
