Infrared Spectrum: 1,3-Dichloro-2-butene
Formula: C 4 H 6 Cl 2
CAS: 926-57-8
State: gas
Instrument: HP-GC/MS/IRD
Origin: NIST Mass Spectrometry Data Center
1/CM	ABSORBANCE
550	0.0003732
562	0.0001272
574	0.0001734
586	0.0002826
598	0.000705
610	0.001968
622	0.0041604
634	0.0035574
646	0.001338
658	0.0007434
670	0.0009366
682	0.0013686
694	0.0021216
706	0.0033066
718	0.0032112
730	0.0018528
742	0.0015384
754	0.0014436
766	0.0010236
778	0.0008424
790	0.0011772
802	0.0019194
814	0.0023448
826	0.0020958
838	0.0015528
850	0.0011802
862	0.0009906
874	0.001023
886	0.0008976
898	0.0008808
910	0.0006558
922	0.000378
934	0.0002616
946	0.000144
958	8.82e-05
970	2.4e-05
982	9.78e-05
994	0.0002892
1006	0.000189
1018	2.28e-05
1030	0.0001032
1042	0.0002154
1054	0.000372
1066	0.0007212
1078	0.0017226
1090	0.0030846
1102	0.0030846
1114	0.002037
1126	0.0010692
1138	0.0007392
1150	0.000462
1162	0.0006378
1174	0.0010566
1186	0.0014946
1198	0.0015096
1210	0.0014322
1222	0.0014148
1234	0.0022182
1246	0.0052692
1258	0.0057324
1270	0.002025
1282	0.0010926
1294	0.0013416
1306	0.0016704
1318	0.0013848
1330	0.0006786
1342	0.0003138
1354	0.000258
1366	0.0003216
1378	0.0007398
1390	0.0009216
1402	0.0006702
1414	0.0006276
1426	0.0010632
1438	0.0016986
1450	0.0017268
1462	0.0011178
1474	0.000507
1486	0.0002442
1498	0.000141
1510	0.000129
1522	0.000144
1534	9.24e-05
1546	0.0001212
1558	0.0001524
1570	0.0002292
1582	0.0002358
1594	0.0003066
1606	0.0003504
1618	0.0005508
1630	0.0009654
1642	0.0020526
1654	0.0037602
1666	0.0032388
1678	0.0009756
1690	0.0002676
1702	0.0001644
1714	0.0001572
1726	0.0001164
1738	9.42e-05
1750	6.54e-05
1762	6.36e-05
1774	5.22e-05
1786	4.44e-05
1798	3e-05
1810	1.44e-05
1822	4.92e-05
1834	1.62e-05
1846	4.02e-05
1858	2.4e-05
1870	5.22e-05
1882	5.04e-05
1894	4.68e-05
1906	3e-05
1918	4.56e-05
1930	2.46e-05
1942	3.9e-05
1954	6.9e-05
1966	5.04e-05
1978	5.34e-05
1990	5.1e-05
2002	7.62e-05
2014	6.12e-05
2026	7.32e-05
2038	3.48e-05
2050	4.98e-05
2062	4.68e-05
2074	5.94e-05
2086	6.48e-05
2098	5.94e-05
2110	5.64e-05
2122	5.46e-05
2134	7.8e-05
2146	6.3e-05
2158	7.14e-05
2170	0.0001224
2182	7.32e-05
2194	5.22e-05
2206	6.3e-05
2218	6.72e-05
2230	5.7e-05
2242	5.82e-05
2254	5.88e-05
2266	6.42e-05
2278	6.6e-05
2290	0.0001026
2302	9.54e-05
2314	8.94e-05
2326	0.000105
2338	0.0001014
2350	8.16e-05
2362	9.66e-05
2374	7.62e-05
2386	0.0001098
2398	9.6e-05
2410	7.74e-05
2422	7.14e-05
2434	9.6e-05
2446	9.66e-05
2458	8.52e-05
2470	0.0001224
2482	9.66e-05
2494	6.18e-05
2506	5.52e-05
2518	4.8e-05
2530	3.12e-05
2542	6.54e-05
2554	5.64e-05
2566	2.88e-05
2578	5.28e-05
2590	3.78e-05
2602	2.76e-05
2614	3.9e-05
2626	6.54e-05
2638	5.46e-05
2650	8.64e-05
2662	5.58e-05
2674	8.64e-05
2686	8.82e-05
2698	0.000111
2710	0.0001206
2722	7.44e-05
2734	0.0001386
2746	0.000144
2758	0.0001428
2770	0.0001008
2782	6.66e-05
2794	9.72e-05
2806	0.0001296
2818	0.000153
2830	0.0002142
2842	0.000327
2854	0.0004596
2866	0.0005988
2878	0.0006894
2890	0.000633
2902	0.0006072
2914	0.000693
2926	0.0015096
2938	0.0019572
2950	0.001692
2962	0.0020604
2974	0.0025956
2986	0.002571
2998	0.0019176
3010	0.000939
3022	0.0005802
3034	0.0006828
3046	0.0007392
3058	0.0005418
3070	0.0002502
3082	0.000198
3094	0.0002178
3106	0.0002016
3118	0.0001446
3130	0.0001446
3142	0.0001602
3154	0.0001356
3166	0.0001794
3178	0.0001284
3190	0.0001278
3202	0.0001314
3214	0.0001644
3226	7.98e-05
3238	1.92e-05
3250	7.98e-05
3262	9.96e-05
3274	0.0001626
3286	0.0001176
3298	0.0001506
3310	9e-05
3322	0.0001362
3334	0.000105
3346	9.24e-05
3358	0.0001008
3370	0.0001158
3382	0.0001266
3394	8.46e-05
3406	7.62e-05
3418	0.0001092
3430	0.0001266
3442	0.0001314
3454	0.0001416
3466	7.38e-05
3478	0.0001668
3490	0.0001182
3502	0.000141
3514	7.32e-05
3526	0.0001212
3538	0.000147
3550	0.0001242
3562	8.58e-05
3574	0.0001356
3586	7.86e-05
3598	9.78e-05
3610	0.0001332
3622	0.0001044
3634	0.0001458
3646	0.000165
3658	0.0001038
3670	0.0001944
3682	0.0001776
3694	8.1e-05
3706	9.84e-05
3718	0.0001002
3730	7.08e-05
3742	0.0001128
3754	0.0001212
3766	7.98e-05
3778	0.00012
3790	0.0001548
3802	0.0001386
3814	0.0001128
3826	0.0001518
3838	0.000147
