Infrared Spectrum: 1,3-DICHLORO-2-BUTENE
Formula: C4 H6 Cl2
CAS: 926-57-8
Class: COBLENTZ
Instrument: Not specified, most likely a prism, grating, or hybrid spectrometer.
Sampling: TRANSMISSION
Path length: 0.0025 CM
Resolution: 4
Origin: W.T. BOLLETER
MICROMETERS	TRANSMITTANCE
14.402	0
14.4722	0
14.5425	0
14.6127	0
14.6829	0
14.7532	0
14.8234	0.001
14.8936	0.005
14.9639	0.01
15.0341	0.021
15.1043	0.028
15.1746	0.053
15.2448	0.074
15.315	0.08
15.3853	0.076
15.4555	0.069
15.5257	0.037
15.596	0.023
15.6662	0.01
15.7364	0.003
15.8067	0
15.8769	0
15.9471	0
16.0174	0
16.0876	0
16.1578	0
16.2281	0.001
16.2983	0.005
16.3685	0.021
16.4387	0.058
16.509	0.112
16.5792	0.201
16.6494	0.263
16.7197	0.32
16.7899	0.376
16.8601	0.417
16.9304	0.445
17.0006	0.463
17.0708	0.484
17.1411	0.497
17.2113	0.508
17.2815	0.515
17.3518	0.524
17.422	0.529
17.4922	0.534
17.5625	0.547
17.6327	0.559
17.7029	0.572
17.7732	0.588
17.8434	0.597
17.9136	0.604
17.9839	0.609
18.0541	0.613
18.1243	0.609
18.1946	0.604
18.2648	0.6
18.335	0.591
18.4053	0.581
18.4755	0.568
18.5457	0.552
18.616	0.538
18.6862	0.522
18.7564	0.508
18.8267	0.497
18.8969	0.479
18.9671	0.47
19.0374	0.463
19.1076	0.458
19.1778	0.454
19.2481	0.456
19.3183	0.467
19.3885	0.475
19.4588	0.486
19.529	0.502
19.5992	0.518
19.6695	0.538
19.7397	0.557
19.8099	0.572
19.8802	0.582
19.9504	0.586
20.0206	0.575
20.0909	0.55
20.1611	0.522
20.2313	0.491
20.3015	0.445
20.3718	0.388
20.442	0.32
20.5122	0.249
20.5825	0.172
20.6527	0.119
20.7229	0.071
20.7932	0.033
20.8634	0.021
20.9336	0.014
21.0039	0.008
21.0741	0.01
21.1443	0.023
21.2146	0.037
21.2848	0.09
21.355	0.146
21.4253	0.208
21.4955	0.29
21.5657	0.367
21.636	0.422
21.7062	0.479
21.7764	0.527
21.8467	0.572
21.9169	0.607
21.9871	0.639
22.0574	0.672
22.1276	0.695
22.1978	0.713
22.2681	0.732
22.3383	0.746
22.4085	0.752
22.4788	0.762
22.549	0.77
22.6192	0.773
22.6895	0.78
22.7597	0.782
22.8299	0.786
22.9002	0.793
22.9704	0.807
23.0406	0.823
23.1109	0.834
23.1811	0.841
23.2513	0.85
23.3216	0.859
23.3918	0.864
23.462	0.873
23.5323	0.882
23.6025	0.891
23.6727	0.896
23.743	0.903
23.8132	0.907
23.8834	0.91
23.9537	0.914
24.0239	0.916
24.0941	0.918
24.1644	0.921
24.2346	0.919
24.3048	0.919
24.375	0.919
24.4453	0.918
24.5155	0.916
24.5857	0.912
24.656	0.909
24.7262	0.903
24.7964	0.898
24.8667	0.893
24.9369	0.885
25.0071	0.878
25.0774	0.869
25.1476	0.862
25.2178	0.852
25.2881	0.846
25.3583	0.832
25.4285	0.818
25.4988	0.802
25.569	0.775
25.6392	0.761
25.7095	0.734
25.7797	0.696
25.8499	0.668
25.9202	0.622
25.9904	0.579
26.0606	0.525
26.1309	0.472
26.2011	0.42
26.2713	0.361
26.3416	0.306
26.4118	0.254
26.482	0.204
26.5523	0.16
26.6225	0.13
26.6927	0.103
26.763	0.083
26.8332	0.08
26.9034	0.081
26.9737	0.096
27.0439	0.126
27.1141	0.165
27.1844	0.213
27.2546	0.27
27.3248	0.327
27.3951	0.383
27.4653	0.429
27.5355	0.472
27.6058	0.522
27.676	0.556
27.7462	0.6
27.8165	0.638
27.8867	0.663
27.9569	0.686
28.0272	0.707
28.0974	0.732
28.1676	0.75
28.2378	0.761
28.3081	0.771
28.3783	0.782
28.4485	0.791
28.5188	0.802
28.589	0.807
28.6592	0.812
28.7295	0.821
28.7997	0.828
28.8699	0.828
28.9402	0.832
29.0104	0.836
29.0806	0.836
29.1509	0.836
29.2211	0.834
29.2913	0.834
29.3616	0.832
29.4318	0.832
29.502	0.827
29.5723	0.825
29.6425	0.825
29.7127	0.823
29.783	0.819
29.8532	0.814
29.9234	0.807
29.9937	0.802
30.0639	0.795
30.1341	0.789
30.2044	0.786
30.2746	0.778
30.3448	0.771
30.4151	0.757
30.4853	0.75
30.5555	0.737
30.6258	0.714
30.696	0.698
30.7662	0.68
30.8365	0.663
30.9067	0.623
30.9769	0.6
31.0472	0.572
31.1174	0.549
31.1876	0.515
31.2579	0.495
31.3281	0.472
31.3983	0.445
31.4686	0.418
31.5388	0.399
31.609	0.379
31.6793	0.368
31.7495	0.358
31.8197	0.351
31.89	0.344
31.9602	0.338
32.0304	0.34
32.1006	0.342
32.1709	0.347
32.2411	0.356
32.3113	0.363
32.3816	0.372
32.4518	0.385
32.522	0.401
32.5923	0.418
32.6625	0.431
32.7327	0.447
32.803	0.452
32.8732	0.467
32.9434	0.475
33.0137	0.483
33.0839	0.495
33.1541	0.504
33.2244	0.518
33.2946	0.54
33.3648	0.552
33.4351	0.565
33.5053	0.577
33.5755	0.588
33.6458	0.6
33.716	0.613
33.7862	0.623
33.8565	0.631
33.9267	0.636
33.9969	0.641
34.0672	0.648
34.1374	0.65
34.2076	0.654
34.2779	0.663
34.3481	0.664
34.4183	0.664
34.4886	0.666
34.5588	0.664
34.629	0.663
34.6993	0.663
34.7695	0.661
34.8397	0.664
34.91	0.664
34.9802	0.664
35.0504	0.663
35.1207	0.663
35.1909	0.663
35.2611	0.663
35.3314	0.663
35.4016	0.661
35.4718	0.661
35.5421	0.661
35.6123	0.659
35.6825	0.659
35.7528	0.659
35.823	0.657
35.8932	0.655
35.9635	0.655
36.0337	0.654
36.1039	0.65
36.1741	0.65
36.2444	0.643
36.3146	0.639
36.3848	0.634
36.4551	0.631
36.5253	0.627
36.5955	0.625
36.6658	0.622
36.736	0.622
36.8062	0.616
36.8765	0.613
36.9467	0.609
37.0169	0.606
37.0872	0.604
37.1574	0.6
37.2276	0.6
37.2979	0.598
37.3681	0.598
37.4383	0.597
37.5086	0.593
37.5788	0.588
37.649	0.581
37.7193	0.575
37.7895	0.575
37.8597	0.572
37.93	0.568
38.0002	0.565
