Infrared Spectrum: Methane, bromotrifluoro-
Formula: C Br F 3
CAS: 75-63-8
State: gas
Origin: Sadtler Research Labs Under US-EPA Contract
1/CM	ABSORBANCE
450	0
462	0.00983718
474	0.0126244
486	0.0129523
498	0.0157395
510	0.0160674
522	0.0141
534	0.0152476
546	0.0195104
558	0.017379
570	0.0157395
582	0.0149197
594	0.0150837
606	0.0142639
618	0.0154116
630	0.0147558
642	0.013936
654	0.0141
666	0.0150837
678	0.0177069
690	0.0211499
702	0.0172151
714	0.017543
726	0.0203302
738	0.0193465
750	0.066401
762	0.087223
774	0.0826323
786	0.013936
798	0.0142639
810	0.0155755
822	0.0132802
834	0.0165593
846	0.0159034
858	0.013936
870	0.0136081
882	0.0126244
894	0.0131162
906	0.0145918
918	0.0136081
930	0.0141
942	0.0132802
954	0.0119686
966	0.013936
978	0.0141
990	0.0126244
1002	0.0141
1014	0.0127883
1026	0.0142639
1038	0.0216418
1050	0.0441034
1062	0.254455
1074	0.822388
1086	0.93322
1098	0.31397
1110	0.168052
1122	0.183136
1134	0.0678765
1146	0.0165593
1158	0.0214778
1170	0.0413162
1182	0.106078
1194	0.657943
1206	1.63953
1218	0.430213
1230	0.0296755
1242	0.0160674
1254	0.0167232
1266	0.0159034
1278	0.0185267
1290	0.0224616
1302	0.0232813
1314	0.0213139
1326	0.0172151
1338	0.0142639
1350	0.0132802
1362	0.0132802
1374	0.0136081
1386	0.0142639
1398	0.0129523
1410	0.0132802
1422	0.0142639
1434	0.013936
1446	0.0126244
1458	0.0124604
1470	0.0121325
1482	0.0131162
1494	0.0129523
1506	0.0131162
1518	0.0134441
1530	0.0119686
1542	0.0121325
1554	0.0121325
1566	0.0118046
1578	0.0118046
1590	0.0118046
1602	0.0121325
1614	0.0124604
1626	0.0122965
1638	0.0126244
1650	0.0121325
1662	0.0121325
1674	0.0116407
1686	0.0124604
1698	0.0118046
1710	0.0121325
1722	0.0121325
1734	0.0124604
1746	0.0129523
1758	0.0124604
1770	0.0113128
1782	0.0109849
1794	0.0109849
1806	0.0113128
1818	0.0118046
1830	0.0126244
1842	0.0131162
1854	0.0126244
1866	0.0114767
1878	0.0116407
1890	0.0113128
1902	0.0111488
1914	0.0111488
1926	0.0113128
1938	0.0113128
1950	0.0121325
1962	0.0134441
1974	0.0116407
1986	0.0109849
1998	0.0108209
2010	0.0108209
2022	0.0106569
2034	0.0106569
2046	0.0108209
2058	0.0109849
2070	0.0106569
2082	0.0109849
2094	0.0106569
2106	0.010329
2118	0.0106569
2130	0.0106569
2142	0.0108209
2154	0.0116407
2166	0.0113128
2178	0.010493
2190	0.010329
2202	0.010493
2214	0.0106569
2226	0.010329
2238	0.010329
2250	0.0111488
2262	0.0131162
2274	0.0178709
2286	0.0206581
2298	0.013936
2310	0.0131162
2322	0.0141
2334	0.0141
2346	0.0142639
2358	0.0142639
2370	0.0136081
2382	0.0136081
2394	0.0149197
2406	0.0144279
2418	0.0121325
2430	0.0114767
2442	0.0111488
2454	0.0111488
2466	0.0100011
2478	0.00983718
2490	0.0100011
2502	0.00967323
2514	0.0101651
2526	0.00983718
2538	0.00983718
2550	0.00983718
2562	0.00967323
2574	0.00983718
2586	0.00983718
2598	0.00950927
2610	0.00950927
2622	0.00967323
2634	0.00934532
2646	0.00918137
2658	0.00934532
2670	0.00950927
2682	0.00950927
2694	0.00967323
2706	0.00901741
2718	0.00934532
2730	0.00950927
2742	0.00918137
2754	0.00918137
2766	0.00950927
2778	0.00918137
2790	0.00918137
2802	0.00918137
2814	0.00934532
2826	0.00967323
2838	0.00901741
2850	0.00901741
2862	0.00901741
2874	0.00918137
2886	0.00918137
2898	0.00934532
2910	0.00918137
2922	0.00918137
2934	0.00918137
2946	0.00901741
2958	0.00950927
2970	0.00918137
2982	0.00918137
2994	0.00983718
3006	0.00934532
3018	0.00967323
3030	0.00901741
3042	0.00950927
3054	0.00950927
3066	0.00934532
3078	0.00950927
3090	0.00950927
3102	0.00934532
3114	0.00934532
3126	0.00967323
3138	0.00934532
3150	0.00950927
3162	0.00983718
3174	0.00918137
3186	0.00967323
3198	0.00918137
3210	0.00934532
3222	0.00967323
3234	0.00918137
3246	0.00967323
3258	0.00918137
3270	0.00934532
3282	0.00967323
3294	0.00967323
3306	0.00983718
3318	0.00983718
3330	0.00950927
3342	0.00934532
3354	0.010329
3366	0.00983718
3378	0.00983718
3390	0.00934532
3402	0.00934532
3414	0.00983718
3426	0.0100011
3438	0.00950927
3450	0.010329
3462	0.0106569
3474	0.0100011
3486	0.0100011
3498	0.00934532
3510	0.00983718
3522	0.00934532
3534	0.00934532
3546	0.00950927
3558	0.0106569
3570	0.00983718
3582	0.0106569
3594	0.00901741
3606	0.0106569
3618	0.010329
3630	0.00950927
3642	0.00967323
3654	0.00967323
3666	0.0111488
3678	0.0101651
3690	0.00983718
3702	0.0100011
3714	0.010493
3726	0.010329
3738	0.00967323
3750	0.00983718
3762	0.0116407
3774	0.00901741
3786	0.0106569
3798	0.00901741
3810	0.010493
3822	0.0108209
3834	0.0106569
3846	0.0114767
3858	0.010493
3870	0.00967323
3882	0.010329
3894	0.00934532
3906	0.00983718
3918	0.010329
3930	0.010493
3942	0.0100011
3954	0.0101651
3966	0.0100011
