Infrared Spectrum: Isothiocyanic acid, ethyl ester
Formula: C3 H5 N S
CAS: 542-85-8
State: SOLUTION (10% CCl4 FOR 3800-1340, 10% CS2 FOR 1340-400 CM^-^1)
Class: COBLENTZ III
Instrument: DOW KBr FOREPRISM-GRATING
Instrument parameters: BLAZED AT 3.5, 12.0, 20.0 AND CHANGED AT 5.0, 7.5, 14.9 MICRON
Sampling: TRANSMISSION
Path length: 0.011 CM, 0.010 CM
Resolution: 2
Origin: DOW CHEMICAL COMPANY
1/CM	TRANSMITTANCE
385	0.3146
394	0.3653
403	0.5015
412	0.6555
421	0.6652
430	0.6644
439	0.6595
448	0.6607
457	0.6878
466	0.7148
475	0.7082
484	0.6883
493	0.6721
502	0.6356
511	0.6125
520	0.5879
529	0.5891
538	0.6045
547	0.6444
556	0.7131
565	0.7698
574	0.8208
583	0.8419
592	0.8511
601	0.8506
610	0.8203
619	0.7991
628	0.7324
637	0.6065
646	0.5705
655	0.6458
664	0.8602
673	0.9203
682	0.9271
691	0.9265
700	0.9264
709	0.9226
718	0.9146
727	0.9131
736	0.9146
745	0.9138
754	0.9108
763	0.9084
772	0.9062
781	0.8941
790	0.8178
799	0.8345
808	0.9128
817	0.9134
826	0.9087
835	0.8984
844	0.8924
853	0.8827
862	0.9021
871	0.9126
880	0.9086
889	0.9211
898	0.8974
907	0.8792
916	0.8435
925	0.7458
934	0.3096
943	0.5583
952	0.8456
961	0.8787
970	0.8831
979	0.8747
988	0.864
997	0.8528
1006	0.8479
1015	0.8351
1024	0.814
1033	0.7795
1042	0.7285
1051	0.6065
1060	0.4685
1069	0.5943
1078	0.7461
1087	0.7412
1096	0.7203
1105	0.6686
1114	0.6095
1123	0.5849
1132	0.6853
1141	0.7736
1150	0.7841
1159	0.7913
1168	0.7933
1177	0.796
1186	0.799
1195	0.8026
1204	0.8103
1213	0.8133
1222	0.8119
1231	0.8099
1240	0.8014
1249	0.7891
1258	0.7817
1267	0.7744
1276	0.769
1285	0.7597
1294	0.7435
1303	0.7059
1312	0.6092
1321	0.4538
1330	0.3159
1339	0.0715
1348	0.0828
1357	0.5077
1366	0.6376
1375	0.6056
1384	0.3339
1393	0.6286
1402	0.7014
1411	0.7107
1420	0.7045
1429	0.6845
1438	0.5992
1447	0.3991
1456	0.2561
1465	0.3946
1474	0.6499
1483	0.7705
1492	0.7769
1501	0.7722
1510	0.7622
1519	0.7519
1528	0.7601
1537	0.74
1546	0.7542
1555	0.779
1564	0.7787
1573	0.812
1582	0.8161
1591	0.8157
1600	0.8301
1609	0.86
1618	0.8526
1627	0.8716
1636	0.8728
1645	0.8764
1654	0.8772
1663	0.8757
1672	0.8759
1681	0.872
1690	0.8683
1699	0.8616
1708	0.8477
1717	0.842
1726	0.8498
1735	0.8596
1744	0.8695
1753	0.8792
1762	0.8817
1771	0.8845
1780	0.8877
1789	0.8882
1798	0.8873
1807	0.8872
1816	0.8876
1825	0.8834
1834	0.8788
1843	0.8744
1852	0.8676
1861	0.8566
1870	0.8486
1879	0.8482
1888	0.8418
1897	0.8327
1906	0.8173
1915	0.7892
1924	0.7669
1933	0.7553
1942	0.7255
1951	0.6705
1960	0.6137
1969	0.5348
1978	0.4626
1987	0.336
1996	0.2675
2005	0.2495
2014	0.2306
2023	0.193
2032	0.095
2041	0.0288
2050	0.0154
2059	0.013
2068	0.0131
2077	0.0137
2086	0.0145
2095	0.0166
2104	0.0172
2113	0.0173
2122	0.0181
2131	0.0191
2140	0.0218
2149	0.0294
2158	0.0544
2167	0.0933
2176	0.062
2185	0.0279
2194	0.0481
2203	0.0848
2212	0.1198
2221	0.1414
2230	0.16
2239	0.2061
2248	0.2701
2257	0.3682
2266	0.5069
2275	0.6172
2284	0.6843
2293	0.7313
2302	0.7878
2311	0.7995
2320	0.8217
2329	0.8823
2338	0.8842
2347	0.8848
2356	0.8835
2365	0.8792
2374	0.8798
2383	0.8745
2392	0.8707
2401	0.8693
2410	0.8664
2419	0.8646
2428	0.8643
2437	0.8664
2446	0.8697
2455	0.867
2464	0.8635
2473	0.8596
2482	0.8565
2491	0.8549
2500	0.8547
2509	0.8545
2518	0.8543
2527	0.8539
2536	0.8478
2545	0.8402
2554	0.8374
2563	0.8377
2572	0.8406
2581	0.8459
2590	0.8531
2599	0.8601
2608	0.8623
2617	0.8621
2626	0.8609
2635	0.8571
2644	0.8482
2653	0.8349
2662	0.8313
2671	0.8317
2680	0.8275
2689	0.8216
2698	0.814
2707	0.8036
2716	0.7767
2725	0.7394
2734	0.6733
2743	0.6776
2752	0.6971
2761	0.7247
2770	0.7708
2779	0.7948
2788	0.7955
2797	0.7976
2806	0.7986
2815	0.7976
2824	0.7971
2833	0.7962
2842	0.7945
2851	0.7843
2860	0.7638
2869	0.6757
2878	0.5873
2887	0.4694
2896	0.5577
2905	0.6533
2914	0.638
2923	0.6302
2932	0.5638
2941	0.3928
2950	0.3059
2959	0.444
2968	0.5998
2977	0.5004
2986	0.2867
2995	0.1602
3004	0.4139
3013	0.6563
3022	0.7771
3031	0.8035
3040	0.835
3049	0.8331
3058	0.8395
3067	0.8456
3076	0.8525
3085	0.8549
3094	0.8631
3103	0.8607
3112	0.862
3121	0.8643
3130	0.8665
3139	0.8685
3148	0.8688
3157	0.8712
3166	0.8716
3175	0.8728
3184	0.8738
3193	0.8762
3202	0.8758
3211	0.8774
3220	0.8776
3229	0.8777
3238	0.8802
3247	0.8829
3256	0.8852
3265	0.8899
3274	0.8914
3283	0.8922
3292	0.8914
3301	0.8919
3310	0.893
3319	0.8914
3328	0.8913
3337	0.8921
3346	0.8901
3355	0.8894
3364	0.8901
3373	0.8911
3382	0.8923
3391	0.8938
3400	0.8961
3409	0.8981
3418	0.8997
3427	0.9007
3436	0.9025
3445	0.9048
3454	0.9066
3463	0.9081
3472	0.9087
3481	0.9091
3490	0.9095
3499	0.91
3508	0.9105
3517	0.9112
3526	0.9122
3535	0.9144
3544	0.9145
3553	0.9149
3562	0.9155
3571	0.9163
3580	0.9185
3589	0.9188
3598	0.9186
3607	0.9196
3616	0.9202
3625	0.9207
3634	0.9198
3643	0.9203
3652	0.9205
3661	0.9206
3670	0.922
3679	0.9208
3688	0.922
3697	0.9234
3706	0.9232
3715	0.9216
3724	0.9215
3733	0.9199
3742	0.9197
3751	0.9233
3760	0.927
3769	0.9264
3778	0.9256
3787	0.9255
3796	0.9249
3805	0.9248
